
---------- Begin Simulation Statistics ----------
final_tick                                   16697500                       # Number of ticks from beginning of simulation (restored from checkpoints and never reset)
host_inst_rate                                  55395                       # Simulator instruction rate (inst/s)
host_mem_usage                                8570896                       # Number of bytes of host memory used
host_op_rate                                    64157                       # Simulator op (including micro ops) rate (op/s)
host_seconds                                     0.09                       # Real time elapsed on the host
host_tick_rate                              181731405                       # Simulator tick rate (ticks/s)
sim_freq                                 1000000000000                       # Frequency of simulated ticks
sim_insts                                        5084                       # Number of instructions simulated
sim_ops                                          5894                       # Number of ops (including micro ops) simulated
sim_seconds                                  0.000017                       # Number of seconds simulated
sim_ticks                                    16697500                       # Number of ticks simulated
system.cpu.cc_regfile_reads                     31812                       # number of cc regfile reads
system.cpu.cc_regfile_writes                     3763                       # number of cc regfile writes
system.cpu.committedInsts                        5084                       # Number of Instructions Simulated
system.cpu.committedOps                          5894                       # Number of Ops (including micro ops) Simulated
system.cpu.cpi                               6.568843                       # CPI: Cycles Per Instruction
system.cpu.cpi_total                         6.568843                       # CPI: Total CPI of All Threads
system.cpu.idleCycles                           19599                       # Total number of cycles that the CPU has spent unscheduled due to idling
system.cpu.iew.branchMispredicts                  421                       # Number of branch mispredicts detected at execute
system.cpu.iew.exec_branches                     1750                       # Number of branches executed
system.cpu.iew.exec_nop                             0                       # number of nop insts executed
system.cpu.iew.exec_rate                     0.269134                       # Inst execution rate
system.cpu.iew.exec_refs                         3236                       # number of memory reference insts executed
system.cpu.iew.exec_stores                       1214                       # Number of stores executed
system.cpu.iew.exec_swp                             0                       # number of swp insts executed
system.cpu.iew.iewBlockCycles                     738                       # Number of cycles IEW is blocking
system.cpu.iew.iewDispLoadInsts                  2545                       # Number of dispatched load instructions
system.cpu.iew.iewDispNonSpecInsts                 32                       # Number of dispatched non-speculative instructions
system.cpu.iew.iewDispSquashedInsts               193                       # Number of squashed instructions skipped by dispatch
system.cpu.iew.iewDispStoreInsts                 1699                       # Number of dispatched store instructions
system.cpu.iew.iewDispatchedInsts               11975                       # Number of instructions dispatched to IQ
system.cpu.iew.iewExecLoadInsts                  2022                       # Number of load instructions executed
system.cpu.iew.iewExecSquashedInsts               430                       # Number of squashed instructions skipped in execute
system.cpu.iew.iewExecutedInsts                  8988                       # Number of executed instructions
system.cpu.iew.iewIQFullEvents                      7                       # Number of times the IQ has become full, causing a stall
system.cpu.iew.iewIdleCycles                        0                       # Number of cycles IEW is idle
system.cpu.iew.iewLSQFullEvents                    42                       # Number of times the LSQ has become full, causing a stall
system.cpu.iew.iewSquashCycles                    402                       # Number of cycles IEW is squashing
system.cpu.iew.iewUnblockCycles                    49                       # Number of cycles IEW is unblocking
system.cpu.iew.memOrderViolationEvents             21                       # Number of memory order violations
system.cpu.iew.predictedNotTakenIncorrect          321                       # Number of branches that were predicted not taken incorrectly
system.cpu.iew.predictedTakenIncorrect            100                       # Number of branches that were predicted taken incorrectly
system.cpu.iew.wb_consumers                      7712                       # num instructions consuming a value
system.cpu.iew.wb_count                          8498                       # cumulative count of insts written-back
system.cpu.iew.wb_fanout                     0.522044                       # average fanout of values written-back
system.cpu.iew.wb_producers                      4026                       # num instructions producing a value
system.cpu.iew.wb_rate                       0.254462                       # insts written-back per cycle
system.cpu.iew.wb_sent                           8634                       # cumulative count of insts sent to commit
system.cpu.int_regfile_reads                     8739                       # number of integer regfile reads
system.cpu.int_regfile_writes                    4901                       # number of integer regfile writes
system.cpu.ipc                               0.152234                       # IPC: Instructions Per Cycle
system.cpu.ipc_total                         0.152234                       # IPC: Total IPC of All Threads
system.cpu.iq.FU_type_0::No_OpClass                10      0.11%      0.11% # Type of FU issued
system.cpu.iq.FU_type_0::IntAlu                  5954     63.22%     63.33% # Type of FU issued
system.cpu.iq.FU_type_0::IntMult                    6      0.06%     63.39% # Type of FU issued
system.cpu.iq.FU_type_0::IntDiv                     0      0.00%     63.39% # Type of FU issued
system.cpu.iq.FU_type_0::FloatAdd                   0      0.00%     63.39% # Type of FU issued
system.cpu.iq.FU_type_0::FloatCmp                   0      0.00%     63.39% # Type of FU issued
system.cpu.iq.FU_type_0::FloatCvt                   0      0.00%     63.39% # Type of FU issued
system.cpu.iq.FU_type_0::FloatMult                  0      0.00%     63.39% # Type of FU issued
system.cpu.iq.FU_type_0::FloatMultAcc               0      0.00%     63.39% # Type of FU issued
system.cpu.iq.FU_type_0::FloatDiv                   0      0.00%     63.39% # Type of FU issued
system.cpu.iq.FU_type_0::FloatMisc                  0      0.00%     63.39% # Type of FU issued
system.cpu.iq.FU_type_0::FloatSqrt                  0      0.00%     63.39% # Type of FU issued
system.cpu.iq.FU_type_0::SimdAdd                    0      0.00%     63.39% # Type of FU issued
system.cpu.iq.FU_type_0::SimdAddAcc                 0      0.00%     63.39% # Type of FU issued
system.cpu.iq.FU_type_0::SimdAlu                    0      0.00%     63.39% # Type of FU issued
system.cpu.iq.FU_type_0::SimdCmp                    0      0.00%     63.39% # Type of FU issued
system.cpu.iq.FU_type_0::SimdCvt                    0      0.00%     63.39% # Type of FU issued
system.cpu.iq.FU_type_0::SimdMisc                   0      0.00%     63.39% # Type of FU issued
system.cpu.iq.FU_type_0::SimdMult                   0      0.00%     63.39% # Type of FU issued
system.cpu.iq.FU_type_0::SimdMultAcc                0      0.00%     63.39% # Type of FU issued
system.cpu.iq.FU_type_0::SimdShift                  0      0.00%     63.39% # Type of FU issued
system.cpu.iq.FU_type_0::SimdShiftAcc               0      0.00%     63.39% # Type of FU issued
system.cpu.iq.FU_type_0::SimdDiv                    0      0.00%     63.39% # Type of FU issued
system.cpu.iq.FU_type_0::SimdSqrt                   0      0.00%     63.39% # Type of FU issued
system.cpu.iq.FU_type_0::SimdFloatAdd               0      0.00%     63.39% # Type of FU issued
system.cpu.iq.FU_type_0::SimdFloatAlu               0      0.00%     63.39% # Type of FU issued
system.cpu.iq.FU_type_0::SimdFloatCmp               0      0.00%     63.39% # Type of FU issued
system.cpu.iq.FU_type_0::SimdFloatCvt               0      0.00%     63.39% # Type of FU issued
system.cpu.iq.FU_type_0::SimdFloatDiv               0      0.00%     63.39% # Type of FU issued
system.cpu.iq.FU_type_0::SimdFloatMisc              3      0.03%     63.42% # Type of FU issued
system.cpu.iq.FU_type_0::SimdFloatMult              0      0.00%     63.42% # Type of FU issued
system.cpu.iq.FU_type_0::SimdFloatMultAcc            0      0.00%     63.42% # Type of FU issued
system.cpu.iq.FU_type_0::SimdFloatSqrt              0      0.00%     63.42% # Type of FU issued
system.cpu.iq.FU_type_0::SimdReduceAdd              0      0.00%     63.42% # Type of FU issued
system.cpu.iq.FU_type_0::SimdReduceAlu              0      0.00%     63.42% # Type of FU issued
system.cpu.iq.FU_type_0::SimdReduceCmp              0      0.00%     63.42% # Type of FU issued
system.cpu.iq.FU_type_0::SimdFloatReduceAdd            0      0.00%     63.42% # Type of FU issued
system.cpu.iq.FU_type_0::SimdFloatReduceCmp            0      0.00%     63.42% # Type of FU issued
system.cpu.iq.FU_type_0::SimdAes                    0      0.00%     63.42% # Type of FU issued
system.cpu.iq.FU_type_0::SimdAesMix                 0      0.00%     63.42% # Type of FU issued
system.cpu.iq.FU_type_0::SimdSha1Hash               0      0.00%     63.42% # Type of FU issued
system.cpu.iq.FU_type_0::SimdSha1Hash2              0      0.00%     63.42% # Type of FU issued
system.cpu.iq.FU_type_0::SimdSha256Hash             0      0.00%     63.42% # Type of FU issued
system.cpu.iq.FU_type_0::SimdSha256Hash2            0      0.00%     63.42% # Type of FU issued
system.cpu.iq.FU_type_0::SimdShaSigma2              0      0.00%     63.42% # Type of FU issued
system.cpu.iq.FU_type_0::SimdShaSigma3              0      0.00%     63.42% # Type of FU issued
system.cpu.iq.FU_type_0::SimdPredAlu                0      0.00%     63.42% # Type of FU issued
system.cpu.iq.FU_type_0::MemRead                 2183     23.18%     86.60% # Type of FU issued
system.cpu.iq.FU_type_0::MemWrite                1262     13.40%    100.00% # Type of FU issued
system.cpu.iq.FU_type_0::FloatMemRead               0      0.00%    100.00% # Type of FU issued
system.cpu.iq.FU_type_0::FloatMemWrite              0      0.00%    100.00% # Type of FU issued
system.cpu.iq.FU_type_0::IprAccess                  0      0.00%    100.00% # Type of FU issued
system.cpu.iq.FU_type_0::InstPrefetch               0      0.00%    100.00% # Type of FU issued
system.cpu.iq.FU_type_0::total                   9418                       # Type of FU issued
system.cpu.iq.fp_alu_accesses                       0                       # Number of floating point alu accesses
system.cpu.iq.fp_inst_queue_reads                   0                       # Number of floating instruction queue reads
system.cpu.iq.fp_inst_queue_wakeup_accesses            0                       # Number of floating instruction queue wakeup accesses
system.cpu.iq.fp_inst_queue_writes                  0                       # Number of floating instruction queue writes
system.cpu.iq.fu_busy_cnt                         180                       # FU busy when requested
system.cpu.iq.fu_busy_rate                   0.019112                       # FU busy rate (busy events/executed inst)
system.cpu.iq.fu_full::No_OpClass                   0      0.00%      0.00% # attempts to use FU when none available
system.cpu.iq.fu_full::IntAlu                      20     11.11%     11.11% # attempts to use FU when none available
system.cpu.iq.fu_full::IntMult                      0      0.00%     11.11% # attempts to use FU when none available
system.cpu.iq.fu_full::IntDiv                       0      0.00%     11.11% # attempts to use FU when none available
system.cpu.iq.fu_full::FloatAdd                     0      0.00%     11.11% # attempts to use FU when none available
system.cpu.iq.fu_full::FloatCmp                     0      0.00%     11.11% # attempts to use FU when none available
system.cpu.iq.fu_full::FloatCvt                     0      0.00%     11.11% # attempts to use FU when none available
system.cpu.iq.fu_full::FloatMult                    0      0.00%     11.11% # attempts to use FU when none available
system.cpu.iq.fu_full::FloatMultAcc                 0      0.00%     11.11% # attempts to use FU when none available
system.cpu.iq.fu_full::FloatDiv                     0      0.00%     11.11% # attempts to use FU when none available
system.cpu.iq.fu_full::FloatMisc                    0      0.00%     11.11% # attempts to use FU when none available
system.cpu.iq.fu_full::FloatSqrt                    0      0.00%     11.11% # attempts to use FU when none available
system.cpu.iq.fu_full::SimdAdd                      0      0.00%     11.11% # attempts to use FU when none available
system.cpu.iq.fu_full::SimdAddAcc                   0      0.00%     11.11% # attempts to use FU when none available
system.cpu.iq.fu_full::SimdAlu                      0      0.00%     11.11% # attempts to use FU when none available
system.cpu.iq.fu_full::SimdCmp                      0      0.00%     11.11% # attempts to use FU when none available
system.cpu.iq.fu_full::SimdCvt                      0      0.00%     11.11% # attempts to use FU when none available
system.cpu.iq.fu_full::SimdMisc                     0      0.00%     11.11% # attempts to use FU when none available
system.cpu.iq.fu_full::SimdMult                     0      0.00%     11.11% # attempts to use FU when none available
system.cpu.iq.fu_full::SimdMultAcc                  0      0.00%     11.11% # attempts to use FU when none available
system.cpu.iq.fu_full::SimdShift                    0      0.00%     11.11% # attempts to use FU when none available
system.cpu.iq.fu_full::SimdShiftAcc                 0      0.00%     11.11% # attempts to use FU when none available
system.cpu.iq.fu_full::SimdDiv                      0      0.00%     11.11% # attempts to use FU when none available
system.cpu.iq.fu_full::SimdSqrt                     0      0.00%     11.11% # attempts to use FU when none available
system.cpu.iq.fu_full::SimdFloatAdd                 0      0.00%     11.11% # attempts to use FU when none available
system.cpu.iq.fu_full::SimdFloatAlu                 0      0.00%     11.11% # attempts to use FU when none available
system.cpu.iq.fu_full::SimdFloatCmp                 0      0.00%     11.11% # attempts to use FU when none available
system.cpu.iq.fu_full::SimdFloatCvt                 0      0.00%     11.11% # attempts to use FU when none available
system.cpu.iq.fu_full::SimdFloatDiv                 0      0.00%     11.11% # attempts to use FU when none available
system.cpu.iq.fu_full::SimdFloatMisc                0      0.00%     11.11% # attempts to use FU when none available
system.cpu.iq.fu_full::SimdFloatMult                0      0.00%     11.11% # attempts to use FU when none available
system.cpu.iq.fu_full::SimdFloatMultAcc             0      0.00%     11.11% # attempts to use FU when none available
system.cpu.iq.fu_full::SimdFloatSqrt                0      0.00%     11.11% # attempts to use FU when none available
system.cpu.iq.fu_full::SimdReduceAdd                0      0.00%     11.11% # attempts to use FU when none available
system.cpu.iq.fu_full::SimdReduceAlu                0      0.00%     11.11% # attempts to use FU when none available
system.cpu.iq.fu_full::SimdReduceCmp                0      0.00%     11.11% # attempts to use FU when none available
system.cpu.iq.fu_full::SimdFloatReduceAdd            0      0.00%     11.11% # attempts to use FU when none available
system.cpu.iq.fu_full::SimdFloatReduceCmp            0      0.00%     11.11% # attempts to use FU when none available
system.cpu.iq.fu_full::SimdAes                      0      0.00%     11.11% # attempts to use FU when none available
system.cpu.iq.fu_full::SimdAesMix                   0      0.00%     11.11% # attempts to use FU when none available
system.cpu.iq.fu_full::SimdSha1Hash                 0      0.00%     11.11% # attempts to use FU when none available
system.cpu.iq.fu_full::SimdSha1Hash2                0      0.00%     11.11% # attempts to use FU when none available
system.cpu.iq.fu_full::SimdSha256Hash               0      0.00%     11.11% # attempts to use FU when none available
system.cpu.iq.fu_full::SimdSha256Hash2              0      0.00%     11.11% # attempts to use FU when none available
system.cpu.iq.fu_full::SimdShaSigma2                0      0.00%     11.11% # attempts to use FU when none available
system.cpu.iq.fu_full::SimdShaSigma3                0      0.00%     11.11% # attempts to use FU when none available
system.cpu.iq.fu_full::SimdPredAlu                  0      0.00%     11.11% # attempts to use FU when none available
system.cpu.iq.fu_full::MemRead                     89     49.44%     60.56% # attempts to use FU when none available
system.cpu.iq.fu_full::MemWrite                    71     39.44%    100.00% # attempts to use FU when none available
system.cpu.iq.fu_full::FloatMemRead                 0      0.00%    100.00% # attempts to use FU when none available
system.cpu.iq.fu_full::FloatMemWrite                0      0.00%    100.00% # attempts to use FU when none available
system.cpu.iq.fu_full::IprAccess                    0      0.00%    100.00% # attempts to use FU when none available
system.cpu.iq.fu_full::InstPrefetch                 0      0.00%    100.00% # attempts to use FU when none available
system.cpu.iq.int_alu_accesses                   9588                       # Number of integer alu accesses
system.cpu.iq.int_inst_queue_reads              32852                       # Number of integer instruction queue reads
system.cpu.iq.int_inst_queue_wakeup_accesses         8498                       # Number of integer instruction queue wakeup accesses
system.cpu.iq.int_inst_queue_writes             18076                       # Number of integer instruction queue writes
system.cpu.iq.iqInstsAdded                      11931                       # Number of instructions added to the IQ (excludes non-spec)
system.cpu.iq.iqInstsIssued                      9418                       # Number of instructions issued
system.cpu.iq.iqNonSpecInstsAdded                  44                       # Number of non-speculative instructions added to the IQ
system.cpu.iq.iqSquashedInstsExamined            6080                       # Number of squashed instructions iterated over during squash; mainly for profiling
system.cpu.iq.iqSquashedInstsIssued                39                       # Number of squashed instructions issued
system.cpu.iq.iqSquashedNonSpecRemoved              7                       # Number of squashed non-spec instructions that were removed
system.cpu.iq.iqSquashedOperandsExamined        15109                       # Number of squashed operands that are examined and possibly removed from graph
system.cpu.iq.issued_per_cycle::samples         13797                       # Number of insts issued each cycle
system.cpu.iq.issued_per_cycle::mean         0.682612                       # Number of insts issued each cycle
system.cpu.iq.issued_per_cycle::stdev        1.430956                       # Number of insts issued each cycle
system.cpu.iq.issued_per_cycle::underflows            0      0.00%      0.00% # Number of insts issued each cycle
system.cpu.iq.issued_per_cycle::0               10220     74.07%     74.07% # Number of insts issued each cycle
system.cpu.iq.issued_per_cycle::1                1203      8.72%     82.79% # Number of insts issued each cycle
system.cpu.iq.issued_per_cycle::2                 829      6.01%     88.80% # Number of insts issued each cycle
system.cpu.iq.issued_per_cycle::3                 561      4.07%     92.87% # Number of insts issued each cycle
system.cpu.iq.issued_per_cycle::4                 398      2.88%     95.75% # Number of insts issued each cycle
system.cpu.iq.issued_per_cycle::5                 333      2.41%     98.17% # Number of insts issued each cycle
system.cpu.iq.issued_per_cycle::6                 165      1.20%     99.36% # Number of insts issued each cycle
system.cpu.iq.issued_per_cycle::7                  77      0.56%     99.92% # Number of insts issued each cycle
system.cpu.iq.issued_per_cycle::8                  11      0.08%    100.00% # Number of insts issued each cycle
system.cpu.iq.issued_per_cycle::overflows            0      0.00%    100.00% # Number of insts issued each cycle
system.cpu.iq.issued_per_cycle::min_value            0                       # Number of insts issued each cycle
system.cpu.iq.issued_per_cycle::max_value            8                       # Number of insts issued each cycle
system.cpu.iq.issued_per_cycle::total           13797                       # Number of insts issued each cycle
system.cpu.iq.rate                           0.282010                       # Inst issue rate
system.cpu.iq.vec_alu_accesses                      0                       # Number of vector alu accesses
system.cpu.iq.vec_inst_queue_reads                  0                       # Number of vector instruction queue reads
system.cpu.iq.vec_inst_queue_wakeup_accesses            0                       # Number of vector instruction queue wakeup accesses
system.cpu.iq.vec_inst_queue_writes                 0                       # Number of vector instruction queue writes
system.cpu.memDep0.conflictingLoads                34                       # Number of conflicting loads.
system.cpu.memDep0.conflictingStores               24                       # Number of conflicting stores.
system.cpu.memDep0.insertedLoads                 2545                       # Number of loads inserted to the mem dependence unit.
system.cpu.memDep0.insertedStores                1699                       # Number of stores inserted to the mem dependence unit.
system.cpu.misc_regfile_reads                   25212                       # number of misc regfile reads
system.cpu.misc_regfile_writes                     46                       # number of misc regfile writes
system.cpu.numCycles                            33396                       # number of cpu cycles simulated
system.cpu.numWorkItemsCompleted                    0                       # number of work items this cpu completed
system.cpu.numWorkItemsStarted                      0                       # number of work items this cpu started
system.cpu.timesIdled                             198                       # Number of times that the entire CPU went into an idle state and unscheduled itself
system.cpu.vec_regfile_reads                       32                       # number of vector regfile reads
system.cpu.workload.numSyscalls                    13                       # Number of system calls
system.l2bus.snoop_filter.hit_multi_requests           13                       # Number of requests hitting in the snoop filter with multiple (>1) holders of the requested data.
system.l2bus.snoop_filter.hit_multi_snoops            0                       # Number of snoops hitting in the snoop filter with multiple (>1) holders of the requested data.
system.l2bus.snoop_filter.hit_single_requests           83                       # Number of requests hitting in the snoop filter with a single holder of the requested data.
system.l2bus.snoop_filter.hit_single_snoops            0                       # Number of snoops hitting in the snoop filter with a single holder of the requested data.
system.l2bus.snoop_filter.tot_requests            506                       # Total number of requests made to the snoop filter.
system.l2bus.snoop_filter.tot_snoops                0                       # Total number of snoops made to the snoop filter.
system.membus.snoop_filter.hit_multi_requests            0                       # Number of requests hitting in the snoop filter with multiple (>1) holders of the requested data.
system.membus.snoop_filter.hit_multi_snoops            0                       # Number of snoops hitting in the snoop filter with multiple (>1) holders of the requested data.
system.membus.snoop_filter.hit_single_requests            0                       # Number of requests hitting in the snoop filter with a single holder of the requested data.
system.membus.snoop_filter.hit_single_snoops            0                       # Number of snoops hitting in the snoop filter with a single holder of the requested data.
system.membus.snoop_filter.tot_requests           404                       # Total number of requests made to the snoop filter.
system.membus.snoop_filter.tot_snoops               0                       # Total number of snoops made to the snoop filter.
system.clk_domain.clock                           500                       # Clock period in ticks
system.clk_domain.voltage_domain.voltage            2                       # Voltage in Volts
system.cpu.branchPred.lookups                    3488                       # Number of BP lookups
system.cpu.branchPred.condPredicted              2228                       # Number of conditional branches predicted
system.cpu.branchPred.condIncorrect               531                       # Number of conditional branches incorrect
system.cpu.branchPred.BTBLookups                 1757                       # Number of BTB lookups
system.cpu.branchPred.BTBHits                    1056                       # Number of BTB hits
system.cpu.branchPred.BTBHitPct             60.102447                       # BTB Hit Percentage
system.cpu.branchPred.RASUsed                     324                       # Number of times the RAS was used to get a target.
system.cpu.branchPred.RASIncorrect                 65                       # Number of incorrect RAS predictions.
system.cpu.branchPred.indirectLookups             270                       # Number of indirect predictor lookups.
system.cpu.branchPred.indirectHits                 13                       # Number of indirect target hits.
system.cpu.branchPred.indirectMisses              257                       # Number of indirect misses.
system.cpu.branchPred.indirectMispredicted           63                       # Number of mispredicted indirect branches.
system.cpu.commit.commitSquashedInsts            6020                       # The number of squashed insts skipped by commit
system.cpu.commit.commitNonSpecStalls              37                       # The number of times commit has been forced to stall to communicate backwards
system.cpu.commit.branchMispredicts               373                       # The number of times a branch was mispredicted
system.cpu.commit.numCommittedDist::samples        12736                       # Number of insts commited each cycle
system.cpu.commit.numCommittedDist::mean     0.462783                       # Number of insts commited each cycle
system.cpu.commit.numCommittedDist::stdev     1.324243                       # Number of insts commited each cycle
system.cpu.commit.numCommittedDist::underflows            0      0.00%      0.00% # Number of insts commited each cycle
system.cpu.commit.numCommittedDist::0           10522     82.62%     82.62% # Number of insts commited each cycle
system.cpu.commit.numCommittedDist::1             919      7.22%     89.83% # Number of insts commited each cycle
system.cpu.commit.numCommittedDist::2             490      3.85%     93.68% # Number of insts commited each cycle
system.cpu.commit.numCommittedDist::3             222      1.74%     95.42% # Number of insts commited each cycle
system.cpu.commit.numCommittedDist::4             114      0.90%     96.32% # Number of insts commited each cycle
system.cpu.commit.numCommittedDist::5             229      1.80%     98.12% # Number of insts commited each cycle
system.cpu.commit.numCommittedDist::6              77      0.60%     98.72% # Number of insts commited each cycle
system.cpu.commit.numCommittedDist::7              38      0.30%     99.02% # Number of insts commited each cycle
system.cpu.commit.numCommittedDist::8             125      0.98%    100.00% # Number of insts commited each cycle
system.cpu.commit.numCommittedDist::overflows            0      0.00%    100.00% # Number of insts commited each cycle
system.cpu.commit.numCommittedDist::min_value            0                       # Number of insts commited each cycle
system.cpu.commit.numCommittedDist::max_value            8                       # Number of insts commited each cycle
system.cpu.commit.numCommittedDist::total        12736                       # Number of insts commited each cycle
system.cpu.commit.instsCommitted                 5084                       # Number of instructions committed
system.cpu.commit.opsCommitted                   5894                       # Number of ops (including micro ops) committed
system.cpu.commit.memRefs                        2050                       # Number of memory references committed
system.cpu.commit.loads                          1096                       # Number of loads committed
system.cpu.commit.amos                              0                       # Number of atomic instructions committed
system.cpu.commit.membars                          12                       # Number of memory barriers committed
system.cpu.commit.branches                       1125                       # Number of branches committed
system.cpu.commit.vector                            0                       # Number of committed Vector instructions.
system.cpu.commit.floating                          0                       # Number of committed floating point instructions.
system.cpu.commit.integer                        5039                       # Number of committed integer instructions.
system.cpu.commit.functionCalls                    90                       # Number of function calls committed.
system.cpu.commit.committedInstType_0::No_OpClass            0      0.00%      0.00% # Class of committed instruction
system.cpu.commit.committedInstType_0::IntAlu         3837     65.10%     65.10% # Class of committed instruction
system.cpu.commit.committedInstType_0::IntMult            4      0.07%     65.17% # Class of committed instruction
system.cpu.commit.committedInstType_0::IntDiv            0      0.00%     65.17% # Class of committed instruction
system.cpu.commit.committedInstType_0::FloatAdd            0      0.00%     65.17% # Class of committed instruction
system.cpu.commit.committedInstType_0::FloatCmp            0      0.00%     65.17% # Class of committed instruction
system.cpu.commit.committedInstType_0::FloatCvt            0      0.00%     65.17% # Class of committed instruction
system.cpu.commit.committedInstType_0::FloatMult            0      0.00%     65.17% # Class of committed instruction
system.cpu.commit.committedInstType_0::FloatMultAcc            0      0.00%     65.17% # Class of committed instruction
system.cpu.commit.committedInstType_0::FloatDiv            0      0.00%     65.17% # Class of committed instruction
system.cpu.commit.committedInstType_0::FloatMisc            0      0.00%     65.17% # Class of committed instruction
system.cpu.commit.committedInstType_0::FloatSqrt            0      0.00%     65.17% # Class of committed instruction
system.cpu.commit.committedInstType_0::SimdAdd            0      0.00%     65.17% # Class of committed instruction
system.cpu.commit.committedInstType_0::SimdAddAcc            0      0.00%     65.17% # Class of committed instruction
system.cpu.commit.committedInstType_0::SimdAlu            0      0.00%     65.17% # Class of committed instruction
system.cpu.commit.committedInstType_0::SimdCmp            0      0.00%     65.17% # Class of committed instruction
system.cpu.commit.committedInstType_0::SimdCvt            0      0.00%     65.17% # Class of committed instruction
system.cpu.commit.committedInstType_0::SimdMisc            0      0.00%     65.17% # Class of committed instruction
system.cpu.commit.committedInstType_0::SimdMult            0      0.00%     65.17% # Class of committed instruction
system.cpu.commit.committedInstType_0::SimdMultAcc            0      0.00%     65.17% # Class of committed instruction
system.cpu.commit.committedInstType_0::SimdShift            0      0.00%     65.17% # Class of committed instruction
system.cpu.commit.committedInstType_0::SimdShiftAcc            0      0.00%     65.17% # Class of committed instruction
system.cpu.commit.committedInstType_0::SimdDiv            0      0.00%     65.17% # Class of committed instruction
system.cpu.commit.committedInstType_0::SimdSqrt            0      0.00%     65.17% # Class of committed instruction
system.cpu.commit.committedInstType_0::SimdFloatAdd            0      0.00%     65.17% # Class of committed instruction
system.cpu.commit.committedInstType_0::SimdFloatAlu            0      0.00%     65.17% # Class of committed instruction
system.cpu.commit.committedInstType_0::SimdFloatCmp            0      0.00%     65.17% # Class of committed instruction
system.cpu.commit.committedInstType_0::SimdFloatCvt            0      0.00%     65.17% # Class of committed instruction
system.cpu.commit.committedInstType_0::SimdFloatDiv            0      0.00%     65.17% # Class of committed instruction
system.cpu.commit.committedInstType_0::SimdFloatMisc            3      0.05%     65.22% # Class of committed instruction
system.cpu.commit.committedInstType_0::SimdFloatMult            0      0.00%     65.22% # Class of committed instruction
system.cpu.commit.committedInstType_0::SimdFloatMultAcc            0      0.00%     65.22% # Class of committed instruction
system.cpu.commit.committedInstType_0::SimdFloatSqrt            0      0.00%     65.22% # Class of committed instruction
system.cpu.commit.committedInstType_0::SimdReduceAdd            0      0.00%     65.22% # Class of committed instruction
system.cpu.commit.committedInstType_0::SimdReduceAlu            0      0.00%     65.22% # Class of committed instruction
system.cpu.commit.committedInstType_0::SimdReduceCmp            0      0.00%     65.22% # Class of committed instruction
system.cpu.commit.committedInstType_0::SimdFloatReduceAdd            0      0.00%     65.22% # Class of committed instruction
system.cpu.commit.committedInstType_0::SimdFloatReduceCmp            0      0.00%     65.22% # Class of committed instruction
system.cpu.commit.committedInstType_0::SimdAes            0      0.00%     65.22% # Class of committed instruction
system.cpu.commit.committedInstType_0::SimdAesMix            0      0.00%     65.22% # Class of committed instruction
system.cpu.commit.committedInstType_0::SimdSha1Hash            0      0.00%     65.22% # Class of committed instruction
system.cpu.commit.committedInstType_0::SimdSha1Hash2            0      0.00%     65.22% # Class of committed instruction
system.cpu.commit.committedInstType_0::SimdSha256Hash            0      0.00%     65.22% # Class of committed instruction
system.cpu.commit.committedInstType_0::SimdSha256Hash2            0      0.00%     65.22% # Class of committed instruction
system.cpu.commit.committedInstType_0::SimdShaSigma2            0      0.00%     65.22% # Class of committed instruction
system.cpu.commit.committedInstType_0::SimdShaSigma3            0      0.00%     65.22% # Class of committed instruction
system.cpu.commit.committedInstType_0::SimdPredAlu            0      0.00%     65.22% # Class of committed instruction
system.cpu.commit.committedInstType_0::MemRead         1096     18.60%     83.81% # Class of committed instruction
system.cpu.commit.committedInstType_0::MemWrite          954     16.19%    100.00% # Class of committed instruction
system.cpu.commit.committedInstType_0::FloatMemRead            0      0.00%    100.00% # Class of committed instruction
system.cpu.commit.committedInstType_0::FloatMemWrite            0      0.00%    100.00% # Class of committed instruction
system.cpu.commit.committedInstType_0::IprAccess            0      0.00%    100.00% # Class of committed instruction
system.cpu.commit.committedInstType_0::InstPrefetch            0      0.00%    100.00% # Class of committed instruction
system.cpu.commit.committedInstType_0::total         5894                       # Class of committed instruction
system.cpu.commit.commitEligibleSamples           125                       # number cycles where commit BW limit reached
system.cpu.dcache.demand_hits::.cpu.data         2328                       # number of demand (read+write) hits
system.cpu.dcache.demand_hits::total             2328                       # number of demand (read+write) hits
system.cpu.dcache.overall_hits::.cpu.data         2328                       # number of overall hits
system.cpu.dcache.overall_hits::total            2328                       # number of overall hits
system.cpu.dcache.demand_misses::.cpu.data          507                       # number of demand (read+write) misses
system.cpu.dcache.demand_misses::total            507                       # number of demand (read+write) misses
system.cpu.dcache.overall_misses::.cpu.data          507                       # number of overall misses
system.cpu.dcache.overall_misses::total           507                       # number of overall misses
system.cpu.dcache.demand_miss_latency::.cpu.data     28981000                       # number of demand (read+write) miss cycles
system.cpu.dcache.demand_miss_latency::total     28981000                       # number of demand (read+write) miss cycles
system.cpu.dcache.overall_miss_latency::.cpu.data     28981000                       # number of overall miss cycles
system.cpu.dcache.overall_miss_latency::total     28981000                       # number of overall miss cycles
system.cpu.dcache.demand_accesses::.cpu.data         2835                       # number of demand (read+write) accesses
system.cpu.dcache.demand_accesses::total         2835                       # number of demand (read+write) accesses
system.cpu.dcache.overall_accesses::.cpu.data         2835                       # number of overall (read+write) accesses
system.cpu.dcache.overall_accesses::total         2835                       # number of overall (read+write) accesses
system.cpu.dcache.demand_miss_rate::.cpu.data     0.178836                       # miss rate for demand accesses
system.cpu.dcache.demand_miss_rate::total     0.178836                       # miss rate for demand accesses
system.cpu.dcache.overall_miss_rate::.cpu.data     0.178836                       # miss rate for overall accesses
system.cpu.dcache.overall_miss_rate::total     0.178836                       # miss rate for overall accesses
system.cpu.dcache.demand_avg_miss_latency::.cpu.data 57161.735700                       # average overall miss latency
system.cpu.dcache.demand_avg_miss_latency::total 57161.735700                       # average overall miss latency
system.cpu.dcache.overall_avg_miss_latency::.cpu.data 57161.735700                       # average overall miss latency
system.cpu.dcache.overall_avg_miss_latency::total 57161.735700                       # average overall miss latency
system.cpu.dcache.blocked_cycles::no_mshrs          143                       # number of cycles access was blocked
system.cpu.dcache.blocked_cycles::no_targets            0                       # number of cycles access was blocked
system.cpu.dcache.blocked::no_mshrs                 4                       # number of cycles access was blocked
system.cpu.dcache.blocked::no_targets               0                       # number of cycles access was blocked
system.cpu.dcache.avg_blocked_cycles::no_mshrs    35.750000                       # average number of cycles each access was blocked
system.cpu.dcache.avg_blocked_cycles::no_targets          nan                       # average number of cycles each access was blocked
system.cpu.dcache.demand_mshr_hits::.cpu.data          358                       # number of demand (read+write) MSHR hits
system.cpu.dcache.demand_mshr_hits::total          358                       # number of demand (read+write) MSHR hits
system.cpu.dcache.overall_mshr_hits::.cpu.data          358                       # number of overall MSHR hits
system.cpu.dcache.overall_mshr_hits::total          358                       # number of overall MSHR hits
system.cpu.dcache.demand_mshr_misses::.cpu.data          149                       # number of demand (read+write) MSHR misses
system.cpu.dcache.demand_mshr_misses::total          149                       # number of demand (read+write) MSHR misses
system.cpu.dcache.overall_mshr_misses::.cpu.data          149                       # number of overall MSHR misses
system.cpu.dcache.overall_mshr_misses::total          149                       # number of overall MSHR misses
system.cpu.dcache.demand_mshr_miss_latency::.cpu.data     10027500                       # number of demand (read+write) MSHR miss cycles
system.cpu.dcache.demand_mshr_miss_latency::total     10027500                       # number of demand (read+write) MSHR miss cycles
system.cpu.dcache.overall_mshr_miss_latency::.cpu.data     10027500                       # number of overall MSHR miss cycles
system.cpu.dcache.overall_mshr_miss_latency::total     10027500                       # number of overall MSHR miss cycles
system.cpu.dcache.demand_mshr_miss_rate::.cpu.data     0.052557                       # mshr miss rate for demand accesses
system.cpu.dcache.demand_mshr_miss_rate::total     0.052557                       # mshr miss rate for demand accesses
system.cpu.dcache.overall_mshr_miss_rate::.cpu.data     0.052557                       # mshr miss rate for overall accesses
system.cpu.dcache.overall_mshr_miss_rate::total     0.052557                       # mshr miss rate for overall accesses
system.cpu.dcache.demand_avg_mshr_miss_latency::.cpu.data 67298.657718                       # average overall mshr miss latency
system.cpu.dcache.demand_avg_mshr_miss_latency::total 67298.657718                       # average overall mshr miss latency
system.cpu.dcache.overall_avg_mshr_miss_latency::.cpu.data 67298.657718                       # average overall mshr miss latency
system.cpu.dcache.overall_avg_mshr_miss_latency::total 67298.657718                       # average overall mshr miss latency
system.cpu.dcache.replacements                      2                       # number of replacements
system.cpu.dcache.ReadReq_hits::.cpu.data         1698                       # number of ReadReq hits
system.cpu.dcache.ReadReq_hits::total            1698                       # number of ReadReq hits
system.cpu.dcache.ReadReq_misses::.cpu.data          208                       # number of ReadReq misses
system.cpu.dcache.ReadReq_misses::total           208                       # number of ReadReq misses
system.cpu.dcache.ReadReq_miss_latency::.cpu.data     11672500                       # number of ReadReq miss cycles
system.cpu.dcache.ReadReq_miss_latency::total     11672500                       # number of ReadReq miss cycles
system.cpu.dcache.ReadReq_accesses::.cpu.data         1906                       # number of ReadReq accesses(hits+misses)
system.cpu.dcache.ReadReq_accesses::total         1906                       # number of ReadReq accesses(hits+misses)
system.cpu.dcache.ReadReq_miss_rate::.cpu.data     0.109129                       # miss rate for ReadReq accesses
system.cpu.dcache.ReadReq_miss_rate::total     0.109129                       # miss rate for ReadReq accesses
system.cpu.dcache.ReadReq_avg_miss_latency::.cpu.data 56117.788462                       # average ReadReq miss latency
system.cpu.dcache.ReadReq_avg_miss_latency::total 56117.788462                       # average ReadReq miss latency
system.cpu.dcache.ReadReq_mshr_hits::.cpu.data          100                       # number of ReadReq MSHR hits
system.cpu.dcache.ReadReq_mshr_hits::total          100                       # number of ReadReq MSHR hits
system.cpu.dcache.ReadReq_mshr_misses::.cpu.data          108                       # number of ReadReq MSHR misses
system.cpu.dcache.ReadReq_mshr_misses::total          108                       # number of ReadReq MSHR misses
system.cpu.dcache.ReadReq_mshr_miss_latency::.cpu.data      6634000                       # number of ReadReq MSHR miss cycles
system.cpu.dcache.ReadReq_mshr_miss_latency::total      6634000                       # number of ReadReq MSHR miss cycles
system.cpu.dcache.ReadReq_mshr_miss_rate::.cpu.data     0.056663                       # mshr miss rate for ReadReq accesses
system.cpu.dcache.ReadReq_mshr_miss_rate::total     0.056663                       # mshr miss rate for ReadReq accesses
system.cpu.dcache.ReadReq_avg_mshr_miss_latency::.cpu.data 61425.925926                       # average ReadReq mshr miss latency
system.cpu.dcache.ReadReq_avg_mshr_miss_latency::total 61425.925926                       # average ReadReq mshr miss latency
system.cpu.dcache.WriteReq_hits::.cpu.data          630                       # number of WriteReq hits
system.cpu.dcache.WriteReq_hits::total            630                       # number of WriteReq hits
system.cpu.dcache.WriteReq_misses::.cpu.data          299                       # number of WriteReq misses
system.cpu.dcache.WriteReq_misses::total          299                       # number of WriteReq misses
system.cpu.dcache.WriteReq_miss_latency::.cpu.data     17308500                       # number of WriteReq miss cycles
system.cpu.dcache.WriteReq_miss_latency::total     17308500                       # number of WriteReq miss cycles
system.cpu.dcache.WriteReq_accesses::.cpu.data          929                       # number of WriteReq accesses(hits+misses)
system.cpu.dcache.WriteReq_accesses::total          929                       # number of WriteReq accesses(hits+misses)
system.cpu.dcache.WriteReq_miss_rate::.cpu.data     0.321851                       # miss rate for WriteReq accesses
system.cpu.dcache.WriteReq_miss_rate::total     0.321851                       # miss rate for WriteReq accesses
system.cpu.dcache.WriteReq_avg_miss_latency::.cpu.data 57887.959866                       # average WriteReq miss latency
system.cpu.dcache.WriteReq_avg_miss_latency::total 57887.959866                       # average WriteReq miss latency
system.cpu.dcache.WriteReq_mshr_hits::.cpu.data          258                       # number of WriteReq MSHR hits
system.cpu.dcache.WriteReq_mshr_hits::total          258                       # number of WriteReq MSHR hits
system.cpu.dcache.WriteReq_mshr_misses::.cpu.data           41                       # number of WriteReq MSHR misses
system.cpu.dcache.WriteReq_mshr_misses::total           41                       # number of WriteReq MSHR misses
system.cpu.dcache.WriteReq_mshr_miss_latency::.cpu.data      3393500                       # number of WriteReq MSHR miss cycles
system.cpu.dcache.WriteReq_mshr_miss_latency::total      3393500                       # number of WriteReq MSHR miss cycles
system.cpu.dcache.WriteReq_mshr_miss_rate::.cpu.data     0.044133                       # mshr miss rate for WriteReq accesses
system.cpu.dcache.WriteReq_mshr_miss_rate::total     0.044133                       # mshr miss rate for WriteReq accesses
system.cpu.dcache.WriteReq_avg_mshr_miss_latency::.cpu.data 82768.292683                       # average WriteReq mshr miss latency
system.cpu.dcache.WriteReq_avg_mshr_miss_latency::total 82768.292683                       # average WriteReq mshr miss latency
system.cpu.dcache.LoadLockedReq_hits::.cpu.data           10                       # number of LoadLockedReq hits
system.cpu.dcache.LoadLockedReq_hits::total           10                       # number of LoadLockedReq hits
system.cpu.dcache.LoadLockedReq_misses::.cpu.data            2                       # number of LoadLockedReq misses
system.cpu.dcache.LoadLockedReq_misses::total            2                       # number of LoadLockedReq misses
system.cpu.dcache.LoadLockedReq_miss_latency::.cpu.data       133500                       # number of LoadLockedReq miss cycles
system.cpu.dcache.LoadLockedReq_miss_latency::total       133500                       # number of LoadLockedReq miss cycles
system.cpu.dcache.LoadLockedReq_accesses::.cpu.data           12                       # number of LoadLockedReq accesses(hits+misses)
system.cpu.dcache.LoadLockedReq_accesses::total           12                       # number of LoadLockedReq accesses(hits+misses)
system.cpu.dcache.LoadLockedReq_miss_rate::.cpu.data     0.166667                       # miss rate for LoadLockedReq accesses
system.cpu.dcache.LoadLockedReq_miss_rate::total     0.166667                       # miss rate for LoadLockedReq accesses
system.cpu.dcache.LoadLockedReq_avg_miss_latency::.cpu.data        66750                       # average LoadLockedReq miss latency
system.cpu.dcache.LoadLockedReq_avg_miss_latency::total        66750                       # average LoadLockedReq miss latency
system.cpu.dcache.LoadLockedReq_mshr_hits::.cpu.data            2                       # number of LoadLockedReq MSHR hits
system.cpu.dcache.LoadLockedReq_mshr_hits::total            2                       # number of LoadLockedReq MSHR hits
system.cpu.dcache.StoreCondReq_hits::.cpu.data           11                       # number of StoreCondReq hits
system.cpu.dcache.StoreCondReq_hits::total           11                       # number of StoreCondReq hits
system.cpu.dcache.StoreCondReq_accesses::.cpu.data           11                       # number of StoreCondReq accesses(hits+misses)
system.cpu.dcache.StoreCondReq_accesses::total           11                       # number of StoreCondReq accesses(hits+misses)
system.cpu.dcache.power_state.pwrStateResidencyTicks::UNDEFINED     16697500                       # Cumulative time (in ticks) in various power states
system.cpu.dcache.tags.tagsinuse            89.741252                       # Cycle average of tags in use
system.cpu.dcache.tags.total_refs                2498                       # Total number of references to valid blocks.
system.cpu.dcache.tags.sampled_refs               149                       # Sample count of references to valid blocks.
system.cpu.dcache.tags.avg_refs             16.765101                       # Average number of references to valid blocks.
system.cpu.dcache.tags.warmup_cycle             99000                       # Cycle when the warmup percentage was hit.
system.cpu.dcache.tags.occ_blocks::.cpu.data    89.741252                       # Average occupied blocks per requestor
system.cpu.dcache.tags.occ_percent::.cpu.data     0.175276                       # Average percentage of cache occupancy
system.cpu.dcache.tags.occ_percent::total     0.175276                       # Average percentage of cache occupancy
system.cpu.dcache.tags.occ_task_id_blocks::1024          147                       # Occupied blocks per task id
system.cpu.dcache.tags.age_task_id_blocks_1024::0           56                       # Occupied blocks per task id
system.cpu.dcache.tags.age_task_id_blocks_1024::1           91                       # Occupied blocks per task id
system.cpu.dcache.tags.occ_task_id_percent::1024     0.287109                       # Percentage of cache occupancy per task id
system.cpu.dcache.tags.tag_accesses              5865                       # Number of tag accesses
system.cpu.dcache.tags.data_accesses             5865                       # Number of data accesses
system.cpu.dcache.tags.power_state.pwrStateResidencyTicks::UNDEFINED     16697500                       # Cumulative time (in ticks) in various power states
system.cpu.decode.idleCycles                     6644                       # Number of cycles decode is idle
system.cpu.decode.blockedCycles                  4074                       # Number of cycles decode is blocked
system.cpu.decode.runCycles                      2502                       # Number of cycles decode is running
system.cpu.decode.unblockCycles                   175                       # Number of cycles decode is unblocking
system.cpu.decode.squashCycles                    402                       # Number of cycles decode is squashing
system.cpu.decode.branchResolved                 1120                       # Number of times decode resolved a  branch
system.cpu.decode.branchMispred                   176                       # Number of times decode detected a branch misprediction
system.cpu.decode.decodedInsts                  14484                       # Number of instructions handled by decode
system.cpu.decode.squashedInsts                   509                       # Number of squashed instructions handled by decode
system.cpu.dtb.instHits                             0                       # ITB inst hits
system.cpu.dtb.instMisses                           0                       # ITB inst misses
system.cpu.dtb.readHits                             0                       # DTB read hits
system.cpu.dtb.readMisses                           0                       # DTB read misses
system.cpu.dtb.writeHits                            0                       # DTB write hits
system.cpu.dtb.writeMisses                          0                       # DTB write misses
system.cpu.dtb.inserts                              0                       # Number of times an entry is inserted into the TLB
system.cpu.dtb.flushTlb                             0                       # Number of times complete TLB was flushed
system.cpu.dtb.flushTlbMva                          0                       # Number of times TLB was flushed by MVA
system.cpu.dtb.flushTlbMvaAsid                      0                       # Number of times TLB was flushed by MVA & ASID
system.cpu.dtb.flushTlbAsid                         0                       # Number of times TLB was flushed by ASID
system.cpu.dtb.flushedEntries                       0                       # Number of entries that have been flushed from TLB
system.cpu.dtb.alignFaults                          0                       # Number of TLB faults due to alignment restrictions
system.cpu.dtb.prefetchFaults                       0                       # Number of TLB faults due to prefetch
system.cpu.dtb.domainFaults                         0                       # Number of TLB faults due to domain restrictions
system.cpu.dtb.permsFaults                          0                       # Number of TLB faults due to permissions restrictions
system.cpu.dtb.readAccesses                         0                       # DTB read accesses
system.cpu.dtb.writeAccesses                        0                       # DTB write accesses
system.cpu.dtb.instAccesses                         0                       # ITB inst accesses
system.cpu.dtb.hits                                 0                       # Total TLB (inst and data) hits
system.cpu.dtb.misses                               0                       # Total TLB (inst and data) misses
system.cpu.dtb.accesses                             0                       # Total TLB (inst and data) accesses
system.cpu.dtb.stage2_mmu.stage2_tlb.instHits            0                       # ITB inst hits
system.cpu.dtb.stage2_mmu.stage2_tlb.instMisses            0                       # ITB inst misses
system.cpu.dtb.stage2_mmu.stage2_tlb.readHits            0                       # DTB read hits
system.cpu.dtb.stage2_mmu.stage2_tlb.readMisses            0                       # DTB read misses
system.cpu.dtb.stage2_mmu.stage2_tlb.writeHits            0                       # DTB write hits
system.cpu.dtb.stage2_mmu.stage2_tlb.writeMisses            0                       # DTB write misses
system.cpu.dtb.stage2_mmu.stage2_tlb.inserts            0                       # Number of times an entry is inserted into the TLB
system.cpu.dtb.stage2_mmu.stage2_tlb.flushTlb            0                       # Number of times complete TLB was flushed
system.cpu.dtb.stage2_mmu.stage2_tlb.flushTlbMva            0                       # Number of times TLB was flushed by MVA
system.cpu.dtb.stage2_mmu.stage2_tlb.flushTlbMvaAsid            0                       # Number of times TLB was flushed by MVA & ASID
system.cpu.dtb.stage2_mmu.stage2_tlb.flushTlbAsid            0                       # Number of times TLB was flushed by ASID
system.cpu.dtb.stage2_mmu.stage2_tlb.flushedEntries            0                       # Number of entries that have been flushed from TLB
system.cpu.dtb.stage2_mmu.stage2_tlb.alignFaults            0                       # Number of TLB faults due to alignment restrictions
system.cpu.dtb.stage2_mmu.stage2_tlb.prefetchFaults            0                       # Number of TLB faults due to prefetch
system.cpu.dtb.stage2_mmu.stage2_tlb.domainFaults            0                       # Number of TLB faults due to domain restrictions
system.cpu.dtb.stage2_mmu.stage2_tlb.permsFaults            0                       # Number of TLB faults due to permissions restrictions
system.cpu.dtb.stage2_mmu.stage2_tlb.readAccesses            0                       # DTB read accesses
system.cpu.dtb.stage2_mmu.stage2_tlb.writeAccesses            0                       # DTB write accesses
system.cpu.dtb.stage2_mmu.stage2_tlb.instAccesses            0                       # ITB inst accesses
system.cpu.dtb.stage2_mmu.stage2_tlb.hits            0                       # Total TLB (inst and data) hits
system.cpu.dtb.stage2_mmu.stage2_tlb.misses            0                       # Total TLB (inst and data) misses
system.cpu.dtb.stage2_mmu.stage2_tlb.accesses            0                       # Total TLB (inst and data) accesses
system.cpu.dtb.stage2_mmu.stage2_tlb.walker.walks            0                       # Table walker walks requested
system.cpu.dtb.stage2_mmu.stage2_tlb.walker.requestOrigin_Requested::Data            0                       # Table walker requests started/completed, data/inst
system.cpu.dtb.stage2_mmu.stage2_tlb.walker.requestOrigin_Requested::Inst            0                       # Table walker requests started/completed, data/inst
system.cpu.dtb.stage2_mmu.stage2_tlb.walker.requestOrigin_Requested::total            0                       # Table walker requests started/completed, data/inst
system.cpu.dtb.stage2_mmu.stage2_tlb.walker.requestOrigin_Completed::Data            0                       # Table walker requests started/completed, data/inst
system.cpu.dtb.stage2_mmu.stage2_tlb.walker.requestOrigin_Completed::Inst            0                       # Table walker requests started/completed, data/inst
system.cpu.dtb.stage2_mmu.stage2_tlb.walker.requestOrigin_Completed::total            0                       # Table walker requests started/completed, data/inst
system.cpu.dtb.stage2_mmu.stage2_tlb.walker.requestOrigin::total            0                       # Table walker requests started/completed, data/inst
system.cpu.dtb.stage2_mmu.stage2_tlb.walker.power_state.pwrStateResidencyTicks::UNDEFINED     16697500                       # Cumulative time (in ticks) in various power states
system.cpu.dtb.walker.walks                         0                       # Table walker walks requested
system.cpu.dtb.walker.requestOrigin_Requested::Data            0                       # Table walker requests started/completed, data/inst
system.cpu.dtb.walker.requestOrigin_Requested::Inst            0                       # Table walker requests started/completed, data/inst
system.cpu.dtb.walker.requestOrigin_Requested::total            0                       # Table walker requests started/completed, data/inst
system.cpu.dtb.walker.requestOrigin_Completed::Data            0                       # Table walker requests started/completed, data/inst
system.cpu.dtb.walker.requestOrigin_Completed::Inst            0                       # Table walker requests started/completed, data/inst
system.cpu.dtb.walker.requestOrigin_Completed::total            0                       # Table walker requests started/completed, data/inst
system.cpu.dtb.walker.requestOrigin::total            0                       # Table walker requests started/completed, data/inst
system.cpu.dtb.walker.power_state.pwrStateResidencyTicks::UNDEFINED     16697500                       # Cumulative time (in ticks) in various power states
system.cpu.fetch.icacheStallCycles               8073                       # Number of cycles fetch is stalled on an Icache miss
system.cpu.fetch.insts                          14922                       # Number of instructions fetch has processed
system.cpu.fetch.branches                        3488                       # Number of branches that fetch encountered
system.cpu.fetch.predictedBranches               1393                       # Number of branches that fetch has predicted taken
system.cpu.fetch.cycles                          4893                       # Number of cycles fetch has run and was not squashing or blocked
system.cpu.fetch.squashCycles                    1130                       # Number of cycles fetch has spent squashing
system.cpu.fetch.miscStallCycles                    6                       # Number of cycles fetch has spent waiting on interrupts,or bad addresses, or out of MSHRs
system.cpu.fetch.pendingTrapStallCycles           243                       # Number of stall cycles due to pending traps
system.cpu.fetch.icacheWaitRetryStallCycles           17                       # Number of stall cycles due to full MSHR
system.cpu.fetch.cacheLines                      2262                       # Number of cache lines fetched
system.cpu.fetch.icacheSquashes                   311                       # Number of outstanding Icache misses that were squashed
system.cpu.fetch.nisnDist::samples              13797                       # Number of instructions fetched each cycle (Total)
system.cpu.fetch.nisnDist::mean              1.278031                       # Number of instructions fetched each cycle (Total)
system.cpu.fetch.nisnDist::stdev             2.631404                       # Number of instructions fetched each cycle (Total)
system.cpu.fetch.nisnDist::underflows               0      0.00%      0.00% # Number of instructions fetched each cycle (Total)
system.cpu.fetch.nisnDist::0                    10624     77.00%     77.00% # Number of instructions fetched each cycle (Total)
system.cpu.fetch.nisnDist::1                      314      2.28%     79.28% # Number of instructions fetched each cycle (Total)
system.cpu.fetch.nisnDist::2                      214      1.55%     80.83% # Number of instructions fetched each cycle (Total)
system.cpu.fetch.nisnDist::3                      270      1.96%     82.79% # Number of instructions fetched each cycle (Total)
system.cpu.fetch.nisnDist::4                      284      2.06%     84.84% # Number of instructions fetched each cycle (Total)
system.cpu.fetch.nisnDist::5                      419      3.04%     87.88% # Number of instructions fetched each cycle (Total)
system.cpu.fetch.nisnDist::6                      163      1.18%     89.06% # Number of instructions fetched each cycle (Total)
system.cpu.fetch.nisnDist::7                      200      1.45%     90.51% # Number of instructions fetched each cycle (Total)
system.cpu.fetch.nisnDist::8                     1309      9.49%    100.00% # Number of instructions fetched each cycle (Total)
system.cpu.fetch.nisnDist::overflows                0      0.00%    100.00% # Number of instructions fetched each cycle (Total)
system.cpu.fetch.nisnDist::min_value                0                       # Number of instructions fetched each cycle (Total)
system.cpu.fetch.nisnDist::max_value                8                       # Number of instructions fetched each cycle (Total)
system.cpu.fetch.nisnDist::total                13797                       # Number of instructions fetched each cycle (Total)
system.cpu.fetch.branchRate                  0.104444                       # Number of branch fetches per cycle
system.cpu.fetch.rate                        0.446820                       # Number of inst fetches per cycle
system.cpu.icache.demand_hits::.cpu.inst         1859                       # number of demand (read+write) hits
system.cpu.icache.demand_hits::total             1859                       # number of demand (read+write) hits
system.cpu.icache.overall_hits::.cpu.inst         1859                       # number of overall hits
system.cpu.icache.overall_hits::total            1859                       # number of overall hits
system.cpu.icache.demand_misses::.cpu.inst          403                       # number of demand (read+write) misses
system.cpu.icache.demand_misses::total            403                       # number of demand (read+write) misses
system.cpu.icache.overall_misses::.cpu.inst          403                       # number of overall misses
system.cpu.icache.overall_misses::total           403                       # number of overall misses
system.cpu.icache.demand_miss_latency::.cpu.inst     26679000                       # number of demand (read+write) miss cycles
system.cpu.icache.demand_miss_latency::total     26679000                       # number of demand (read+write) miss cycles
system.cpu.icache.overall_miss_latency::.cpu.inst     26679000                       # number of overall miss cycles
system.cpu.icache.overall_miss_latency::total     26679000                       # number of overall miss cycles
system.cpu.icache.demand_accesses::.cpu.inst         2262                       # number of demand (read+write) accesses
system.cpu.icache.demand_accesses::total         2262                       # number of demand (read+write) accesses
system.cpu.icache.overall_accesses::.cpu.inst         2262                       # number of overall (read+write) accesses
system.cpu.icache.overall_accesses::total         2262                       # number of overall (read+write) accesses
system.cpu.icache.demand_miss_rate::.cpu.inst     0.178161                       # miss rate for demand accesses
system.cpu.icache.demand_miss_rate::total     0.178161                       # miss rate for demand accesses
system.cpu.icache.overall_miss_rate::.cpu.inst     0.178161                       # miss rate for overall accesses
system.cpu.icache.overall_miss_rate::total     0.178161                       # miss rate for overall accesses
system.cpu.icache.demand_avg_miss_latency::.cpu.inst 66200.992556                       # average overall miss latency
system.cpu.icache.demand_avg_miss_latency::total 66200.992556                       # average overall miss latency
system.cpu.icache.overall_avg_miss_latency::.cpu.inst 66200.992556                       # average overall miss latency
system.cpu.icache.overall_avg_miss_latency::total 66200.992556                       # average overall miss latency
system.cpu.icache.blocked_cycles::no_mshrs          317                       # number of cycles access was blocked
system.cpu.icache.blocked_cycles::no_targets            0                       # number of cycles access was blocked
system.cpu.icache.blocked::no_mshrs                 5                       # number of cycles access was blocked
system.cpu.icache.blocked::no_targets               0                       # number of cycles access was blocked
system.cpu.icache.avg_blocked_cycles::no_mshrs    63.400000                       # average number of cycles each access was blocked
system.cpu.icache.avg_blocked_cycles::no_targets          nan                       # average number of cycles each access was blocked
system.cpu.icache.demand_mshr_hits::.cpu.inst           97                       # number of demand (read+write) MSHR hits
system.cpu.icache.demand_mshr_hits::total           97                       # number of demand (read+write) MSHR hits
system.cpu.icache.overall_mshr_hits::.cpu.inst           97                       # number of overall MSHR hits
system.cpu.icache.overall_mshr_hits::total           97                       # number of overall MSHR hits
system.cpu.icache.demand_mshr_misses::.cpu.inst          306                       # number of demand (read+write) MSHR misses
system.cpu.icache.demand_mshr_misses::total          306                       # number of demand (read+write) MSHR misses
system.cpu.icache.overall_mshr_misses::.cpu.inst          306                       # number of overall MSHR misses
system.cpu.icache.overall_mshr_misses::total          306                       # number of overall MSHR misses
system.cpu.icache.demand_mshr_miss_latency::.cpu.inst     21356000                       # number of demand (read+write) MSHR miss cycles
system.cpu.icache.demand_mshr_miss_latency::total     21356000                       # number of demand (read+write) MSHR miss cycles
system.cpu.icache.overall_mshr_miss_latency::.cpu.inst     21356000                       # number of overall MSHR miss cycles
system.cpu.icache.overall_mshr_miss_latency::total     21356000                       # number of overall MSHR miss cycles
system.cpu.icache.demand_mshr_miss_rate::.cpu.inst     0.135279                       # mshr miss rate for demand accesses
system.cpu.icache.demand_mshr_miss_rate::total     0.135279                       # mshr miss rate for demand accesses
system.cpu.icache.overall_mshr_miss_rate::.cpu.inst     0.135279                       # mshr miss rate for overall accesses
system.cpu.icache.overall_mshr_miss_rate::total     0.135279                       # mshr miss rate for overall accesses
system.cpu.icache.demand_avg_mshr_miss_latency::.cpu.inst 69790.849673                       # average overall mshr miss latency
system.cpu.icache.demand_avg_mshr_miss_latency::total 69790.849673                       # average overall mshr miss latency
system.cpu.icache.overall_avg_mshr_miss_latency::.cpu.inst 69790.849673                       # average overall mshr miss latency
system.cpu.icache.overall_avg_mshr_miss_latency::total 69790.849673                       # average overall mshr miss latency
system.cpu.icache.replacements                     49                       # number of replacements
system.cpu.icache.ReadReq_hits::.cpu.inst         1859                       # number of ReadReq hits
system.cpu.icache.ReadReq_hits::total            1859                       # number of ReadReq hits
system.cpu.icache.ReadReq_misses::.cpu.inst          403                       # number of ReadReq misses
system.cpu.icache.ReadReq_misses::total           403                       # number of ReadReq misses
system.cpu.icache.ReadReq_miss_latency::.cpu.inst     26679000                       # number of ReadReq miss cycles
system.cpu.icache.ReadReq_miss_latency::total     26679000                       # number of ReadReq miss cycles
system.cpu.icache.ReadReq_accesses::.cpu.inst         2262                       # number of ReadReq accesses(hits+misses)
system.cpu.icache.ReadReq_accesses::total         2262                       # number of ReadReq accesses(hits+misses)
system.cpu.icache.ReadReq_miss_rate::.cpu.inst     0.178161                       # miss rate for ReadReq accesses
system.cpu.icache.ReadReq_miss_rate::total     0.178161                       # miss rate for ReadReq accesses
system.cpu.icache.ReadReq_avg_miss_latency::.cpu.inst 66200.992556                       # average ReadReq miss latency
system.cpu.icache.ReadReq_avg_miss_latency::total 66200.992556                       # average ReadReq miss latency
system.cpu.icache.ReadReq_mshr_hits::.cpu.inst           97                       # number of ReadReq MSHR hits
system.cpu.icache.ReadReq_mshr_hits::total           97                       # number of ReadReq MSHR hits
system.cpu.icache.ReadReq_mshr_misses::.cpu.inst          306                       # number of ReadReq MSHR misses
system.cpu.icache.ReadReq_mshr_misses::total          306                       # number of ReadReq MSHR misses
system.cpu.icache.ReadReq_mshr_miss_latency::.cpu.inst     21356000                       # number of ReadReq MSHR miss cycles
system.cpu.icache.ReadReq_mshr_miss_latency::total     21356000                       # number of ReadReq MSHR miss cycles
system.cpu.icache.ReadReq_mshr_miss_rate::.cpu.inst     0.135279                       # mshr miss rate for ReadReq accesses
system.cpu.icache.ReadReq_mshr_miss_rate::total     0.135279                       # mshr miss rate for ReadReq accesses
system.cpu.icache.ReadReq_avg_mshr_miss_latency::.cpu.inst 69790.849673                       # average ReadReq mshr miss latency
system.cpu.icache.ReadReq_avg_mshr_miss_latency::total 69790.849673                       # average ReadReq mshr miss latency
system.cpu.icache.power_state.pwrStateResidencyTicks::UNDEFINED     16697500                       # Cumulative time (in ticks) in various power states
system.cpu.icache.tags.tagsinuse           141.478162                       # Cycle average of tags in use
system.cpu.icache.tags.total_refs                2165                       # Total number of references to valid blocks.
system.cpu.icache.tags.sampled_refs               306                       # Sample count of references to valid blocks.
system.cpu.icache.tags.avg_refs              7.075163                       # Average number of references to valid blocks.
system.cpu.icache.tags.warmup_cycle             82000                       # Cycle when the warmup percentage was hit.
system.cpu.icache.tags.occ_blocks::.cpu.inst   141.478162                       # Average occupied blocks per requestor
system.cpu.icache.tags.occ_percent::.cpu.inst     0.276325                       # Average percentage of cache occupancy
system.cpu.icache.tags.occ_percent::total     0.276325                       # Average percentage of cache occupancy
system.cpu.icache.tags.occ_task_id_blocks::1024          257                       # Occupied blocks per task id
system.cpu.icache.tags.age_task_id_blocks_1024::0          172                       # Occupied blocks per task id
system.cpu.icache.tags.age_task_id_blocks_1024::1           85                       # Occupied blocks per task id
system.cpu.icache.tags.occ_task_id_percent::1024     0.501953                       # Percentage of cache occupancy per task id
system.cpu.icache.tags.tag_accesses              4830                       # Number of tag accesses
system.cpu.icache.tags.data_accesses             4830                       # Number of data accesses
system.cpu.icache.tags.power_state.pwrStateResidencyTicks::UNDEFINED     16697500                       # Cumulative time (in ticks) in various power states
system.cpu.itb.instHits                             0                       # ITB inst hits
system.cpu.itb.instMisses                           0                       # ITB inst misses
system.cpu.itb.readHits                             0                       # DTB read hits
system.cpu.itb.readMisses                           0                       # DTB read misses
system.cpu.itb.writeHits                            0                       # DTB write hits
system.cpu.itb.writeMisses                          0                       # DTB write misses
system.cpu.itb.inserts                              0                       # Number of times an entry is inserted into the TLB
system.cpu.itb.flushTlb                             0                       # Number of times complete TLB was flushed
system.cpu.itb.flushTlbMva                          0                       # Number of times TLB was flushed by MVA
system.cpu.itb.flushTlbMvaAsid                      0                       # Number of times TLB was flushed by MVA & ASID
system.cpu.itb.flushTlbAsid                         0                       # Number of times TLB was flushed by ASID
system.cpu.itb.flushedEntries                       0                       # Number of entries that have been flushed from TLB
system.cpu.itb.alignFaults                          0                       # Number of TLB faults due to alignment restrictions
system.cpu.itb.prefetchFaults                       0                       # Number of TLB faults due to prefetch
system.cpu.itb.domainFaults                         0                       # Number of TLB faults due to domain restrictions
system.cpu.itb.permsFaults                          0                       # Number of TLB faults due to permissions restrictions
system.cpu.itb.readAccesses                         0                       # DTB read accesses
system.cpu.itb.writeAccesses                        0                       # DTB write accesses
system.cpu.itb.instAccesses                         0                       # ITB inst accesses
system.cpu.itb.hits                                 0                       # Total TLB (inst and data) hits
system.cpu.itb.misses                               0                       # Total TLB (inst and data) misses
system.cpu.itb.accesses                             0                       # Total TLB (inst and data) accesses
system.cpu.itb.stage2_mmu.stage2_tlb.instHits            0                       # ITB inst hits
system.cpu.itb.stage2_mmu.stage2_tlb.instMisses            0                       # ITB inst misses
system.cpu.itb.stage2_mmu.stage2_tlb.readHits            0                       # DTB read hits
system.cpu.itb.stage2_mmu.stage2_tlb.readMisses            0                       # DTB read misses
system.cpu.itb.stage2_mmu.stage2_tlb.writeHits            0                       # DTB write hits
system.cpu.itb.stage2_mmu.stage2_tlb.writeMisses            0                       # DTB write misses
system.cpu.itb.stage2_mmu.stage2_tlb.inserts            0                       # Number of times an entry is inserted into the TLB
system.cpu.itb.stage2_mmu.stage2_tlb.flushTlb            0                       # Number of times complete TLB was flushed
system.cpu.itb.stage2_mmu.stage2_tlb.flushTlbMva            0                       # Number of times TLB was flushed by MVA
system.cpu.itb.stage2_mmu.stage2_tlb.flushTlbMvaAsid            0                       # Number of times TLB was flushed by MVA & ASID
system.cpu.itb.stage2_mmu.stage2_tlb.flushTlbAsid            0                       # Number of times TLB was flushed by ASID
system.cpu.itb.stage2_mmu.stage2_tlb.flushedEntries            0                       # Number of entries that have been flushed from TLB
system.cpu.itb.stage2_mmu.stage2_tlb.alignFaults            0                       # Number of TLB faults due to alignment restrictions
system.cpu.itb.stage2_mmu.stage2_tlb.prefetchFaults            0                       # Number of TLB faults due to prefetch
system.cpu.itb.stage2_mmu.stage2_tlb.domainFaults            0                       # Number of TLB faults due to domain restrictions
system.cpu.itb.stage2_mmu.stage2_tlb.permsFaults            0                       # Number of TLB faults due to permissions restrictions
system.cpu.itb.stage2_mmu.stage2_tlb.readAccesses            0                       # DTB read accesses
[...]
system.mem_ctrl.wrQLenPdf::58                       0                       # What write queue length does an incoming req see
system.mem_ctrl.wrQLenPdf::59                       0                       # What write queue length does an incoming req see
system.mem_ctrl.wrQLenPdf::60                       0                       # What write queue length does an incoming req see
system.mem_ctrl.wrQLenPdf::61                       0                       # What write queue length does an incoming req see
system.mem_ctrl.wrQLenPdf::62                       0                       # What write queue length does an incoming req see
system.mem_ctrl.wrQLenPdf::63                       0                       # What write queue length does an incoming req see
system.mem_ctrl.bytesReadWrQ                        0                       # Total number of bytes read from write queue
system.mem_ctrl.bytesReadSys                    25856                       # Total read bytes from the system interface side
system.mem_ctrl.bytesWrittenSys                     0                       # Total written bytes from the system interface side
system.mem_ctrl.avgRdBWSys                    1548.50                       # Average system read bandwidth in MiByte/s
system.mem_ctrl.avgWrBWSys                       0.00                       # Average system write bandwidth in MiByte/s
system.mem_ctrl.totGap                       16608000                       # Total gap between requests
system.mem_ctrl.avgGap                       41108.91                       # Average gap between requests
system.mem_ctrl.requestorReadBytes::.cpu.inst        18048                       # Per-requestor bytes read from memory
system.mem_ctrl.requestorReadBytes::.cpu.data         7808                       # Per-requestor bytes read from memory
system.mem_ctrl.requestorReadRate::.cpu.inst 1080880371.313070774078                       # Per-requestor bytes read from memory rate (Bytes/sec)
system.mem_ctrl.requestorReadRate::.cpu.data 467614912.412037730217                       # Per-requestor bytes read from memory rate (Bytes/sec)
system.mem_ctrl.requestorReadAccesses::.cpu.inst          282                       # Per-requestor read serviced memory accesses
system.mem_ctrl.requestorReadAccesses::.cpu.data          122                       # Per-requestor read serviced memory accesses
system.mem_ctrl.requestorReadTotalLat::.cpu.inst      7730500                       # Per-requestor read total memory access latency
system.mem_ctrl.requestorReadTotalLat::.cpu.data      3551500                       # Per-requestor read total memory access latency
system.mem_ctrl.requestorReadAvgLat::.cpu.inst     27413.12                       # Per-requestor read average memory access latency
system.mem_ctrl.requestorReadAvgLat::.cpu.data     29110.66                       # Per-requestor read average memory access latency
system.mem_ctrl.dram.bytes_read::.cpu.inst        18048                       # Number of bytes read from this memory
system.mem_ctrl.dram.bytes_read::.cpu.data         7808                       # Number of bytes read from this memory
system.mem_ctrl.dram.bytes_read::total          25856                       # Number of bytes read from this memory
system.mem_ctrl.dram.bytes_inst_read::.cpu.inst        18048                       # Number of instructions bytes read from this memory
system.mem_ctrl.dram.bytes_inst_read::total        18048                       # Number of instructions bytes read from this memory
system.mem_ctrl.dram.num_reads::.cpu.inst          282                       # Number of read requests responded to by this memory
system.mem_ctrl.dram.num_reads::.cpu.data          122                       # Number of read requests responded to by this memory
system.mem_ctrl.dram.num_reads::total             404                       # Number of read requests responded to by this memory
system.mem_ctrl.dram.bw_read::.cpu.inst    1080880371                       # Total read bandwidth from this memory (bytes/s)
system.mem_ctrl.dram.bw_read::.cpu.data     467614912                       # Total read bandwidth from this memory (bytes/s)
system.mem_ctrl.dram.bw_read::total        1548495284                       # Total read bandwidth from this memory (bytes/s)
system.mem_ctrl.dram.bw_inst_read::.cpu.inst   1080880371                       # Instruction read bandwidth from this memory (bytes/s)
system.mem_ctrl.dram.bw_inst_read::total   1080880371                       # Instruction read bandwidth from this memory (bytes/s)
system.mem_ctrl.dram.bw_total::.cpu.inst   1080880371                       # Total bandwidth to/from this memory (bytes/s)
system.mem_ctrl.dram.bw_total::.cpu.data    467614912                       # Total bandwidth to/from this memory (bytes/s)
system.mem_ctrl.dram.bw_total::total       1548495284                       # Total bandwidth to/from this memory (bytes/s)
system.mem_ctrl.dram.readBursts                   404                       # Number of DRAM read bursts
system.mem_ctrl.dram.writeBursts                    0                       # Number of DRAM write bursts
system.mem_ctrl.dram.perBankRdBursts::0            91                       # Per bank write bursts
system.mem_ctrl.dram.perBankRdBursts::1            45                       # Per bank write bursts
system.mem_ctrl.dram.perBankRdBursts::2            20                       # Per bank write bursts
system.mem_ctrl.dram.perBankRdBursts::3            43                       # Per bank write bursts
system.mem_ctrl.dram.perBankRdBursts::4            18                       # Per bank write bursts
system.mem_ctrl.dram.perBankRdBursts::5            34                       # Per bank write bursts
system.mem_ctrl.dram.perBankRdBursts::6            37                       # Per bank write bursts
system.mem_ctrl.dram.perBankRdBursts::7            10                       # Per bank write bursts
system.mem_ctrl.dram.perBankRdBursts::8             4                       # Per bank write bursts
system.mem_ctrl.dram.perBankRdBursts::9             9                       # Per bank write bursts
system.mem_ctrl.dram.perBankRdBursts::10           27                       # Per bank write bursts
system.mem_ctrl.dram.perBankRdBursts::11           44                       # Per bank write bursts
system.mem_ctrl.dram.perBankRdBursts::12           10                       # Per bank write bursts
system.mem_ctrl.dram.perBankRdBursts::13            6                       # Per bank write bursts
system.mem_ctrl.dram.perBankRdBursts::14            0                       # Per bank write bursts
system.mem_ctrl.dram.perBankRdBursts::15            6                       # Per bank write bursts
system.mem_ctrl.dram.perBankWrBursts::0             0                       # Per bank write bursts
system.mem_ctrl.dram.perBankWrBursts::1             0                       # Per bank write bursts
system.mem_ctrl.dram.perBankWrBursts::2             0                       # Per bank write bursts
system.mem_ctrl.dram.perBankWrBursts::3             0                       # Per bank write bursts
system.mem_ctrl.dram.perBankWrBursts::4             0                       # Per bank write bursts
system.mem_ctrl.dram.perBankWrBursts::5             0                       # Per bank write bursts
system.mem_ctrl.dram.perBankWrBursts::6             0                       # Per bank write bursts
system.mem_ctrl.dram.perBankWrBursts::7             0                       # Per bank write bursts
system.mem_ctrl.dram.perBankWrBursts::8             0                       # Per bank write bursts
system.mem_ctrl.dram.perBankWrBursts::9             0                       # Per bank write bursts
system.mem_ctrl.dram.perBankWrBursts::10            0                       # Per bank write bursts
system.mem_ctrl.dram.perBankWrBursts::11            0                       # Per bank write bursts
system.mem_ctrl.dram.perBankWrBursts::12            0                       # Per bank write bursts
system.mem_ctrl.dram.perBankWrBursts::13            0                       # Per bank write bursts
system.mem_ctrl.dram.perBankWrBursts::14            0                       # Per bank write bursts
system.mem_ctrl.dram.perBankWrBursts::15            0                       # Per bank write bursts
system.mem_ctrl.dram.totQLat                  3707000                       # Total ticks spent queuing
system.mem_ctrl.dram.totBusLat                2020000                       # Total ticks spent in databus transfers
system.mem_ctrl.dram.totMemAccLat            11282000                       # Total ticks spent from burst creation until serviced by the DRAM
system.mem_ctrl.dram.avgQLat                  9175.74                       # Average queueing delay per DRAM burst
system.mem_ctrl.dram.avgBusLat                5000.00                       # Average bus latency per DRAM burst
system.mem_ctrl.dram.avgMemAccLat            27925.74                       # Average memory access latency per DRAM burst
system.mem_ctrl.dram.readRowHits                  340                       # Number of row buffer hits during reads
system.mem_ctrl.dram.writeRowHits                   0                       # Number of row buffer hits during writes
system.mem_ctrl.dram.readRowHitRate             84.16                       # Row buffer hit rate for reads
system.mem_ctrl.dram.writeRowHitRate              nan                       # Row buffer hit rate for writes
system.mem_ctrl.dram.bytesPerActivate::samples           61                       # Bytes accessed per row activation
system.mem_ctrl.dram.bytesPerActivate::mean   417.573770                       # Bytes accessed per row activation
system.mem_ctrl.dram.bytesPerActivate::gmean   287.338960                       # Bytes accessed per row activation
system.mem_ctrl.dram.bytesPerActivate::stdev   337.162496                       # Bytes accessed per row activation
system.mem_ctrl.dram.bytesPerActivate::0-127            9     14.75%     14.75% # Bytes accessed per row activation
system.mem_ctrl.dram.bytesPerActivate::128-255           19     31.15%     45.90% # Bytes accessed per row activation
system.mem_ctrl.dram.bytesPerActivate::256-383            6      9.84%     55.74% # Bytes accessed per row activation
system.mem_ctrl.dram.bytesPerActivate::384-511            7     11.48%     67.21% # Bytes accessed per row activation
system.mem_ctrl.dram.bytesPerActivate::512-639            4      6.56%     73.77% # Bytes accessed per row activation
system.mem_ctrl.dram.bytesPerActivate::640-767            2      3.28%     77.05% # Bytes accessed per row activation
system.mem_ctrl.dram.bytesPerActivate::768-895            2      3.28%     80.33% # Bytes accessed per row activation
system.mem_ctrl.dram.bytesPerActivate::896-1023            4      6.56%     86.89% # Bytes accessed per row activation
system.mem_ctrl.dram.bytesPerActivate::1024-1151            8     13.11%    100.00% # Bytes accessed per row activation
system.mem_ctrl.dram.bytesPerActivate::total           61                       # Bytes accessed per row activation
system.mem_ctrl.dram.bytesRead                  25856                       # Total number of bytes read from DRAM
system.mem_ctrl.dram.bytesWritten                   0                       # Total number of bytes written to DRAM
system.mem_ctrl.dram.avgRdBW              1548.495284                       # Average DRAM read bandwidth in MiBytes/s
system.mem_ctrl.dram.avgWrBW                        0                       # Average DRAM write bandwidth in MiBytes/s
system.mem_ctrl.dram.peakBW                  12800.00                       # Theoretical peak bandwidth in MiByte/s
system.mem_ctrl.dram.busUtil                    12.10                       # Data bus utilization in percentage
system.mem_ctrl.dram.busUtilRead                12.10                       # Data bus utilization in percentage for reads
system.mem_ctrl.dram.busUtilWrite                0.00                       # Data bus utilization in percentage for writes
system.mem_ctrl.dram.pageHitRate                84.16                       # Row buffer hit rate, read and write combined
system.mem_ctrl.dram.power_state.pwrStateResidencyTicks::UNDEFINED     16697500                       # Cumulative time (in ticks) in various power states
system.mem_ctrl.dram.rank0.actEnergy           314160                       # Energy for activate commands per rank (pJ)
system.mem_ctrl.dram.rank0.preEnergy           159390                       # Energy for precharge commands per rank (pJ)
system.mem_ctrl.dram.rank0.readEnergy         2127720                       # Energy for read commands per rank (pJ)
system.mem_ctrl.dram.rank0.writeEnergy              0                       # Energy for write commands per rank (pJ)
system.mem_ctrl.dram.rank0.refreshEnergy 1229280.000000                       # Energy for refresh commands per rank (pJ)
system.mem_ctrl.dram.rank0.actBackEnergy      7577010                       # Energy for active background per rank (pJ)
system.mem_ctrl.dram.rank0.preBackEnergy        31200                       # Energy for precharge background per rank (pJ)
system.mem_ctrl.dram.rank0.actPowerDownEnergy            0                       # Energy for active power-down per rank (pJ)
system.mem_ctrl.dram.rank0.prePowerDownEnergy            0                       # Energy for precharge power-down per rank (pJ)
system.mem_ctrl.dram.rank0.selfRefreshEnergy            0                       # Energy for self refresh per rank (pJ)
system.mem_ctrl.dram.rank0.totalEnergy       11438760                       # Total energy per rank (pJ)
system.mem_ctrl.dram.rank0.averagePower    685.058242                       # Core power per rank (mW)
system.mem_ctrl.dram.rank0.totalIdleTime            0                       # Total Idle time Per DRAM Rank
system.mem_ctrl.dram.rank0.pwrStateTime::IDLE        11500                       # Time in different power states
system.mem_ctrl.dram.rank0.pwrStateTime::REF       520000                       # Time in different power states
system.mem_ctrl.dram.rank0.pwrStateTime::SREF            0                       # Time in different power states
system.mem_ctrl.dram.rank0.pwrStateTime::PRE_PDN            0                       # Time in different power states
system.mem_ctrl.dram.rank0.pwrStateTime::ACT     16166000                       # Time in different power states
system.mem_ctrl.dram.rank0.pwrStateTime::ACT_PDN            0                       # Time in different power states
system.mem_ctrl.dram.rank1.actEnergy           142800                       # Energy for activate commands per rank (pJ)
system.mem_ctrl.dram.rank1.preEnergy            72105                       # Energy for precharge commands per rank (pJ)
system.mem_ctrl.dram.rank1.readEnergy          756840                       # Energy for read commands per rank (pJ)
system.mem_ctrl.dram.rank1.writeEnergy              0                       # Energy for write commands per rank (pJ)
system.mem_ctrl.dram.rank1.refreshEnergy 1229280.000000                       # Energy for refresh commands per rank (pJ)
system.mem_ctrl.dram.rank1.actBackEnergy      7191120                       # Energy for active background per rank (pJ)
system.mem_ctrl.dram.rank1.preBackEnergy       356160                       # Energy for precharge background per rank (pJ)
system.mem_ctrl.dram.rank1.actPowerDownEnergy            0                       # Energy for active power-down per rank (pJ)
system.mem_ctrl.dram.rank1.prePowerDownEnergy            0                       # Energy for precharge power-down per rank (pJ)
system.mem_ctrl.dram.rank1.selfRefreshEnergy            0                       # Energy for self refresh per rank (pJ)
system.mem_ctrl.dram.rank1.totalEnergy        9748305                       # Total energy per rank (pJ)
system.mem_ctrl.dram.rank1.averagePower    583.818236                       # Core power per rank (mW)
system.mem_ctrl.dram.rank1.totalIdleTime            0                       # Total Idle time Per DRAM Rank
system.mem_ctrl.dram.rank1.pwrStateTime::IDLE       871250                       # Time in different power states
system.mem_ctrl.dram.rank1.pwrStateTime::REF       520000                       # Time in different power states
system.mem_ctrl.dram.rank1.pwrStateTime::SREF            0                       # Time in different power states
system.mem_ctrl.dram.rank1.pwrStateTime::PRE_PDN            0                       # Time in different power states
system.mem_ctrl.dram.rank1.pwrStateTime::ACT     15306250                       # Time in different power states
system.mem_ctrl.dram.rank1.pwrStateTime::ACT_PDN            0                       # Time in different power states
system.mem_ctrl.power_state.pwrStateResidencyTicks::UNDEFINED     16697500                       # Cumulative time (in ticks) in various power states
system.membus.trans_dist::ReadResp                363                       # Transaction distribution
system.membus.trans_dist::ReadExReq                41                       # Transaction distribution
system.membus.trans_dist::ReadExResp               41                       # Transaction distribution
system.membus.trans_dist::ReadSharedReq           363                       # Transaction distribution
system.membus.pkt_count_system.l2cache.mem_side_port::system.mem_ctrl.port          808                       # Packet count per connected requestor and responder (bytes)
system.membus.pkt_count::total                    808                       # Packet count per connected requestor and responder (bytes)
system.membus.pkt_size_system.l2cache.mem_side_port::system.mem_ctrl.port        25856                       # Cumulative packet size per connected requestor and responder (bytes)
system.membus.pkt_size::total                   25856                       # Cumulative packet size per connected requestor and responder (bytes)
system.membus.snoops                                0                       # Total snoops (count)
system.membus.snoopTraffic                          0                       # Total snoop traffic (bytes)
system.membus.snoop_fanout::samples               404                       # Request fanout histogram
system.membus.snoop_fanout::mean                    0                       # Request fanout histogram
system.membus.snoop_fanout::stdev                   0                       # Request fanout histogram
system.membus.snoop_fanout::underflows              0      0.00%      0.00% # Request fanout histogram
system.membus.snoop_fanout::0                     404    100.00%    100.00% # Request fanout histogram
system.membus.snoop_fanout::1                       0      0.00%    100.00% # Request fanout histogram
system.membus.snoop_fanout::overflows               0      0.00%    100.00% # Request fanout histogram
system.membus.snoop_fanout::min_value               0                       # Request fanout histogram
system.membus.snoop_fanout::max_value               0                       # Request fanout histogram
system.membus.snoop_fanout::total                 404                       # Request fanout histogram
system.membus.power_state.pwrStateResidencyTicks::UNDEFINED     16697500                       # Cumulative time (in ticks) in various power states
system.membus.reqLayer0.occupancy              202000                       # Layer occupancy (ticks)
system.membus.reqLayer0.utilization               1.2                       # Layer utilization (%)
system.membus.respLayer1.occupancy            1098500                       # Layer occupancy (ticks)
system.membus.respLayer1.utilization              6.6                       # Layer utilization (%)

---------- End Simulation Statistics   ----------
