
---------- Begin Simulation Statistics ----------
simSeconds                                   0.000017                       # Number of seconds simulated (Second)
simTicks                                     16788500                       # Number of ticks simulated (Tick)
finalTick                                    16788500                       # Number of ticks from beginning of simulation (restored from checkpoints and never reset) (Tick)
simFreq                                  1000000000000                       # The number of ticks per simulated second ((Tick/Second))
hostSeconds                                      0.16                       # Real time elapsed on the host (Second)
hostTickRate                                108022749                       # The number of ticks simulated per host second (ticks/s) ((Tick/Second))
hostMemory                                    8578580                       # Number of bytes of host memory used (Byte)
simInsts                                         5084                       # Number of instructions simulated (Count)
simOps                                           5894                       # Number of ops (including micro ops) simulated (Count)
hostInstRate                                    32670                       # Simulator instruction rate (inst/s) ((Count/Second))
hostOpRate                                      37873                       # Simulator op (including micro ops) rate (op/s) ((Count/Second))
system.clk_domain.clock                           500                       # Clock period in ticks (Tick)
system.clk_domain.voltage_domain.voltage            2                       # Voltage in Volts (Volt)
system.cpu0.numCycles                           33578                       # Number of cpu cycles simulated (Cycle)
system.cpu0.numWorkItemsStarted                     0                       # Number of work items this cpu started (Count)
system.cpu0.numWorkItemsCompleted                   0                       # Number of work items this cpu completed (Count)
system.cpu0.instsAdded                          12012                       # Number of instructions added to the IQ (excludes non-spec) (Count)
system.cpu0.nonSpecInstsAdded                      44                       # Number of non-speculative instructions added to the IQ (Count)
system.cpu0.instsIssued                          9456                       # Number of instructions issued (Count)
system.cpu0.squashedInstsIssued                    39                       # Number of squashed instructions issued (Count)
system.cpu0.squashedInstsExamined                6161                       # Number of squashed instructions iterated over during squash; mainly for profiling (Count)
system.cpu0.squashedOperandsExamined            15315                       # Number of squashed operands that are examined and possibly removed from graph (Count)
system.cpu0.squashedNonSpecRemoved                  7                       # Number of squashed non-spec instructions that were removed (Count)
system.cpu0.numIssuedDist::samples              14531                       # Number of insts issued each cycle (Count)
system.cpu0.numIssuedDist::mean              0.650747                       # Number of insts issued each cycle (Count)
system.cpu0.numIssuedDist::stdev             1.404852                       # Number of insts issued each cycle (Count)
system.cpu0.numIssuedDist::underflows               0      0.00%      0.00% # Number of insts issued each cycle (Count)
system.cpu0.numIssuedDist::0                    10939     75.28%     75.28% # Number of insts issued each cycle (Count)
system.cpu0.numIssuedDist::1                     1214      8.35%     83.63% # Number of insts issued each cycle (Count)
system.cpu0.numIssuedDist::2                      832      5.73%     89.36% # Number of insts issued each cycle (Count)
system.cpu0.numIssuedDist::3                      541      3.72%     93.08% # Number of insts issued each cycle (Count)
system.cpu0.numIssuedDist::4                      422      2.90%     95.99% # Number of insts issued each cycle (Count)
system.cpu0.numIssuedDist::5                      331      2.28%     98.27% # Number of insts issued each cycle (Count)
system.cpu0.numIssuedDist::6                      162      1.11%     99.38% # Number of insts issued each cycle (Count)
system.cpu0.numIssuedDist::7                       80      0.55%     99.93% # Number of insts issued each cycle (Count)
system.cpu0.numIssuedDist::8                       10      0.07%    100.00% # Number of insts issued each cycle (Count)
system.cpu0.numIssuedDist::overflows                0      0.00%    100.00% # Number of insts issued each cycle (Count)
system.cpu0.numIssuedDist::min_value                0                       # Number of insts issued each cycle (Count)
system.cpu0.numIssuedDist::max_value                8                       # Number of insts issued each cycle (Count)
system.cpu0.numIssuedDist::total                14531                       # Number of insts issued each cycle (Count)
system.cpu0.statFuBusy::No_OpClass                  0      0.00%      0.00% # attempts to use FU when none available (Count)
system.cpu0.statFuBusy::IntAlu                     20     11.11%     11.11% # attempts to use FU when none available (Count)
system.cpu0.statFuBusy::IntMult                     0      0.00%     11.11% # attempts to use FU when none available (Count)
system.cpu0.statFuBusy::IntDiv                      0      0.00%     11.11% # attempts to use FU when none available (Count)
system.cpu0.statFuBusy::FloatAdd                    0      0.00%     11.11% # attempts to use FU when none available (Count)
system.cpu0.statFuBusy::FloatCmp                    0      0.00%     11.11% # attempts to use FU when none available (Count)
system.cpu0.statFuBusy::FloatCvt                    0      0.00%     11.11% # attempts to use FU when none available (Count)
system.cpu0.statFuBusy::FloatMult                   0      0.00%     11.11% # attempts to use FU when none available (Count)
system.cpu0.statFuBusy::FloatMultAcc                0      0.00%     11.11% # attempts to use FU when none available (Count)
system.cpu0.statFuBusy::FloatDiv                    0      0.00%     11.11% # attempts to use FU when none available (Count)
system.cpu0.statFuBusy::FloatMisc                   0      0.00%     11.11% # attempts to use FU when none available (Count)
system.cpu0.statFuBusy::FloatSqrt                   0      0.00%     11.11% # attempts to use FU when none available (Count)
system.cpu0.statFuBusy::SimdAdd                     0      0.00%     11.11% # attempts to use FU when none available (Count)
system.cpu0.statFuBusy::SimdAddAcc                  0      0.00%     11.11% # attempts to use FU when none available (Count)
system.cpu0.statFuBusy::SimdAlu                     0      0.00%     11.11% # attempts to use FU when none available (Count)
system.cpu0.statFuBusy::SimdCmp                     0      0.00%     11.11% # attempts to use FU when none available (Count)
system.cpu0.statFuBusy::SimdCvt                     0      0.00%     11.11% # attempts to use FU when none available (Count)
system.cpu0.statFuBusy::SimdMisc                    0      0.00%     11.11% # attempts to use FU when none available (Count)
system.cpu0.statFuBusy::SimdMult                    0      0.00%     11.11% # attempts to use FU when none available (Count)
system.cpu0.statFuBusy::SimdMultAcc                 0      0.00%     11.11% # attempts to use FU when none available (Count)
system.cpu0.statFuBusy::SimdShift                   0      0.00%     11.11% # attempts to use FU when none available (Count)
system.cpu0.statFuBusy::SimdShiftAcc                0      0.00%     11.11% # attempts to use FU when none available (Count)
system.cpu0.statFuBusy::SimdDiv                     0      0.00%     11.11% # attempts to use FU when none available (Count)
system.cpu0.statFuBusy::SimdSqrt                    0      0.00%     11.11% # attempts to use FU when none available (Count)
system.cpu0.statFuBusy::SimdFloatAdd                0      0.00%     11.11% # attempts to use FU when none available (Count)
system.cpu0.statFuBusy::SimdFloatAlu                0      0.00%     11.11% # attempts to use FU when none available (Count)
system.cpu0.statFuBusy::SimdFloatCmp                0      0.00%     11.11% # attempts to use FU when none available (Count)
system.cpu0.statFuBusy::SimdFloatCvt                0      0.00%     11.11% # attempts to use FU when none available (Count)
system.cpu0.statFuBusy::SimdFloatDiv                0      0.00%     11.11% # attempts to use FU when none available (Count)
system.cpu0.statFuBusy::SimdFloatMisc               0      0.00%     11.11% # attempts to use FU when none available (Count)
system.cpu0.statFuBusy::SimdFloatMult               0      0.00%     11.11% # attempts to use FU when none available (Count)
system.cpu0.statFuBusy::SimdFloatMultAcc            0      0.00%     11.11% # attempts to use FU when none available (Count)
system.cpu0.statFuBusy::SimdFloatSqrt               0      0.00%     11.11% # attempts to use FU when none available (Count)
system.cpu0.statFuBusy::SimdReduceAdd               0      0.00%     11.11% # attempts to use FU when none available (Count)
system.cpu0.statFuBusy::SimdReduceAlu               0      0.00%     11.11% # attempts to use FU when none available (Count)
system.cpu0.statFuBusy::SimdReduceCmp               0      0.00%     11.11% # attempts to use FU when none available (Count)
system.cpu0.statFuBusy::SimdFloatReduceAdd            0      0.00%     11.11% # attempts to use FU when none available (Count)
system.cpu0.statFuBusy::SimdFloatReduceCmp            0      0.00%     11.11% # attempts to use FU when none available (Count)
system.cpu0.statFuBusy::SimdAes                     0      0.00%     11.11% # attempts to use FU when none available (Count)
system.cpu0.statFuBusy::SimdAesMix                  0      0.00%     11.11% # attempts to use FU when none available (Count)
system.cpu0.statFuBusy::SimdSha1Hash                0      0.00%     11.11% # attempts to use FU when none available (Count)
system.cpu0.statFuBusy::SimdSha1Hash2               0      0.00%     11.11% # attempts to use FU when none available (Count)
system.cpu0.statFuBusy::SimdSha256Hash              0      0.00%     11.11% # attempts to use FU when none available (Count)
system.cpu0.statFuBusy::SimdSha256Hash2             0      0.00%     11.11% # attempts to use FU when none available (Count)
system.cpu0.statFuBusy::SimdShaSigma2               0      0.00%     11.11% # attempts to use FU when none available (Count)
system.cpu0.statFuBusy::SimdShaSigma3               0      0.00%     11.11% # attempts to use FU when none available (Count)
system.cpu0.statFuBusy::SimdPredAlu                 0      0.00%     11.11% # attempts to use FU when none available (Count)
system.cpu0.statFuBusy::MemRead                    89     49.44%     60.56% # attempts to use FU when none available (Count)
system.cpu0.statFuBusy::MemWrite                   71     39.44%    100.00% # attempts to use FU when none available (Count)
system.cpu0.statFuBusy::FloatMemRead                0      0.00%    100.00% # attempts to use FU when none available (Count)
system.cpu0.statFuBusy::FloatMemWrite               0      0.00%    100.00% # attempts to use FU when none available (Count)
system.cpu0.statFuBusy::IprAccess                   0      0.00%    100.00% # attempts to use FU when none available (Count)
system.cpu0.statFuBusy::InstPrefetch                0      0.00%    100.00% # attempts to use FU when none available (Count)
system.cpu0.statIssuedInstType_0::No_OpClass            0      0.00%      0.00% # Number of instructions issued per FU type, per thread (Count)
system.cpu0.statIssuedInstType_0::IntAlu         5996     63.41%     63.41% # Number of instructions issued per FU type, per thread (Count)
system.cpu0.statIssuedInstType_0::IntMult            6      0.06%     63.47% # Number of instructions issued per FU type, per thread (Count)
system.cpu0.statIssuedInstType_0::IntDiv            0      0.00%     63.47% # Number of instructions issued per FU type, per thread (Count)
system.cpu0.statIssuedInstType_0::FloatAdd            0      0.00%     63.47% # Number of instructions issued per FU type, per thread (Count)
system.cpu0.statIssuedInstType_0::FloatCmp            0      0.00%     63.47% # Number of instructions issued per FU type, per thread (Count)
system.cpu0.statIssuedInstType_0::FloatCvt            0      0.00%     63.47% # Number of instructions issued per FU type, per thread (Count)
system.cpu0.statIssuedInstType_0::FloatMult            0      0.00%     63.47% # Number of instructions issued per FU type, per thread (Count)
system.cpu0.statIssuedInstType_0::FloatMultAcc            0      0.00%     63.47% # Number of instructions issued per FU type, per thread (Count)
system.cpu0.statIssuedInstType_0::FloatDiv            0      0.00%     63.47% # Number of instructions issued per FU type, per thread (Count)
system.cpu0.statIssuedInstType_0::FloatMisc            0      0.00%     63.47% # Number of instructions issued per FU type, per thread (Count)
system.cpu0.statIssuedInstType_0::FloatSqrt            0      0.00%     63.47% # Number of instructions issued per FU type, per thread (Count)
system.cpu0.statIssuedInstType_0::SimdAdd            0      0.00%     63.47% # Number of instructions issued per FU type, per thread (Count)
system.cpu0.statIssuedInstType_0::SimdAddAcc            0      0.00%     63.47% # Number of instructions issued per FU type, per thread (Count)
system.cpu0.statIssuedInstType_0::SimdAlu            0      0.00%     63.47% # Number of instructions issued per FU type, per thread (Count)
system.cpu0.statIssuedInstType_0::SimdCmp            0      0.00%     63.47% # Number of instructions issued per FU type, per thread (Count)
system.cpu0.statIssuedInstType_0::SimdCvt            0      0.00%     63.47% # Number of instructions issued per FU type, per thread (Count)
system.cpu0.statIssuedInstType_0::SimdMisc            0      0.00%     63.47% # Number of instructions issued per FU type, per thread (Count)
system.cpu0.statIssuedInstType_0::SimdMult            0      0.00%     63.47% # Number of instructions issued per FU type, per thread (Count)
system.cpu0.statIssuedInstType_0::SimdMultAcc            0      0.00%     63.47% # Number of instructions issued per FU type, per thread (Count)
system.cpu0.statIssuedInstType_0::SimdShift            0      0.00%     63.47% # Number of instructions issued per FU type, per thread (Count)
system.cpu0.statIssuedInstType_0::SimdShiftAcc            0      0.00%     63.47% # Number of instructions issued per FU type, per thread (Count)
system.cpu0.statIssuedInstType_0::SimdDiv            0      0.00%     63.47% # Number of instructions issued per FU type, per thread (Count)
system.cpu0.statIssuedInstType_0::SimdSqrt            0      0.00%     63.47% # Number of instructions issued per FU type, per thread (Count)
system.cpu0.statIssuedInstType_0::SimdFloatAdd            0      0.00%     63.47% # Number of instructions issued per FU type, per thread (Count)
system.cpu0.statIssuedInstType_0::SimdFloatAlu            0      0.00%     63.47% # Number of instructions issued per FU type, per thread (Count)
system.cpu0.statIssuedInstType_0::SimdFloatCmp            0      0.00%     63.47% # Number of instructions issued per FU type, per thread (Count)
system.cpu0.statIssuedInstType_0::SimdFloatCvt            0      0.00%     63.47% # Number of instructions issued per FU type, per thread (Count)
system.cpu0.statIssuedInstType_0::SimdFloatDiv            0      0.00%     63.47% # Number of instructions issued per FU type, per thread (Count)
system.cpu0.statIssuedInstType_0::SimdFloatMisc            3      0.03%     63.50% # Number of instructions issued per FU type, per thread (Count)
system.cpu0.statIssuedInstType_0::SimdFloatMult            0      0.00%     63.50% # Number of instructions issued per FU type, per thread (Count)
system.cpu0.statIssuedInstType_0::SimdFloatMultAcc            0      0.00%     63.50% # Number of instructions issued per FU type, per thread (Count)
system.cpu0.statIssuedInstType_0::SimdFloatSqrt            0      0.00%     63.50% # Number of instructions issued per FU type, per thread (Count)
system.cpu0.statIssuedInstType_0::SimdReduceAdd            0      0.00%     63.50% # Number of instructions issued per FU type, per thread (Count)
system.cpu0.statIssuedInstType_0::SimdReduceAlu            0      0.00%     63.50% # Number of instructions issued per FU type, per thread (Count)
system.cpu0.statIssuedInstType_0::SimdReduceCmp            0      0.00%     63.50% # Number of instructions issued per FU type, per thread (Count)
system.cpu0.statIssuedInstType_0::SimdFloatReduceAdd            0      0.00%     63.50% # Number of instructions issued per FU type, per thread (Count)
system.cpu0.statIssuedInstType_0::SimdFloatReduceCmp            0      0.00%     63.50% # Number of instructions issued per FU type, per thread (Count)
system.cpu0.statIssuedInstType_0::SimdAes            0      0.00%     63.50% # Number of instructions issued per FU type, per thread (Count)
system.cpu0.statIssuedInstType_0::SimdAesMix            0      0.00%     63.50% # Number of instructions issued per FU type, per thread (Count)
system.cpu0.statIssuedInstType_0::SimdSha1Hash            0      0.00%     63.50% # Number of instructions issued per FU type, per thread (Count)
system.cpu0.statIssuedInstType_0::SimdSha1Hash2            0      0.00%     63.50% # Number of instructions issued per FU type, per thread (Count)
system.cpu0.statIssuedInstType_0::SimdSha256Hash            0      0.00%     63.50% # Number of instructions issued per FU type, per thread (Count)
system.cpu0.statIssuedInstType_0::SimdSha256Hash2            0      0.00%     63.50% # Number of instructions issued per FU type, per thread (Count)
system.cpu0.statIssuedInstType_0::SimdShaSigma2            0      0.00%     63.50% # Number of instructions issued per FU type, per thread (Count)
system.cpu0.statIssuedInstType_0::SimdShaSigma3            0      0.00%     63.50% # Number of instructions issued per FU type, per thread (Count)
system.cpu0.statIssuedInstType_0::SimdPredAlu            0      0.00%     63.50% # Number of instructions issued per FU type, per thread (Count)
system.cpu0.statIssuedInstType_0::MemRead         2189     23.15%     86.65% # Number of instructions issued per FU type, per thread (Count)
system.cpu0.statIssuedInstType_0::MemWrite         1262     13.35%    100.00% # Number of instructions issued per FU type, per thread (Count)
system.cpu0.statIssuedInstType_0::FloatMemRead            0      0.00%    100.00% # Number of instructions issued per FU type, per thread (Count)
system.cpu0.statIssuedInstType_0::FloatMemWrite            0      0.00%    100.00% # Number of instructions issued per FU type, per thread (Count)
system.cpu0.statIssuedInstType_0::IprAccess            0      0.00%    100.00% # Number of instructions issued per FU type, per thread (Count)
system.cpu0.statIssuedInstType_0::InstPrefetch            0      0.00%    100.00% # Number of instructions issued per FU type, per thread (Count)
system.cpu0.statIssuedInstType_0::total          9456                       # Number of instructions issued per FU type, per thread (Count)
system.cpu0.issueRate                        0.281613                       # Inst issue rate ((Count/Cycle))
system.cpu0.fuBusy                                180                       # FU busy when requested (Count)
system.cpu0.fuBusyRate                       0.019036                       # FU busy rate (busy events/executed inst) ((Count/Count))
system.cpu0.intInstQueueReads                   33662                       # Number of integer instruction queue reads (Count)
system.cpu0.intInstQueueWrites                  18238                       # Number of integer instruction queue writes (Count)
system.cpu0.intInstQueueWakeupAccesses           8533                       # Number of integer instruction queue wakeup accesses (Count)
system.cpu0.fpInstQueueReads                        0                       # Number of floating instruction queue reads (Count)
system.cpu0.fpInstQueueWrites                       0                       # Number of floating instruction queue writes (Count)
system.cpu0.fpInstQueueWakeupAccesses               0                       # Number of floating instruction queue wakeup accesses (Count)
system.cpu0.vecInstQueueReads                       0                       # Number of vector instruction queue reads (Count)
system.cpu0.vecInstQueueWrites                      0                       # Number of vector instruction queue writes (Count)
system.cpu0.vecInstQueueWakeupAccesses              0                       # Number of vector instruction queue wakeup accesses (Count)
system.cpu0.intAluAccesses                       9636                       # Number of integer alu accesses (Count)
system.cpu0.fpAluAccesses                           0                       # Number of floating point alu accesses (Count)
system.cpu0.vecAluAccesses                          0                       # Number of vector alu accesses (Count)
system.cpu0.numInsts                             9019                       # Number of executed instructions (Count)
system.cpu0.numLoadInsts                         2027                       # Number of load instructions executed (Count)
system.cpu0.numSquashedInsts                      437                       # Number of squashed instructions skipped in execute (Count)
system.cpu0.numSwp                                  0                       # Number of swp insts executed (Count)
system.cpu0.numNop                                  0                       # Number of nop insts executed (Count)
system.cpu0.numRefs                              3242                       # Number of memory reference insts executed (Count)
system.cpu0.numBranches                          1774                       # Number of branches executed (Count)
system.cpu0.numStoreInsts                        1215                       # Number of stores executed (Count)
system.cpu0.numRate                          0.268598                       # Inst execution rate ((Count/Cycle))
system.cpu0.timesIdled                            197                       # Number of times that the entire CPU went into an idle state and unscheduled itself (Count)
system.cpu0.idleCycles                          19047                       # Total number of cycles that the CPU has spent unscheduled due to idling (Cycle)
system.cpu0.committedInsts                       5084                       # Number of Instructions Simulated (Count)
system.cpu0.committedOps                         5894                       # Number of Ops (including micro ops) Simulated (Count)
system.cpu0.cpi                              6.604642                       # CPI: Cycles Per Instruction ((Cycle/Count))
system.cpu0.totalCpi                         6.604642                       # CPI: Total CPI of All Threads ((Cycle/Count))
system.cpu0.ipc                              0.151409                       # IPC: Instructions Per Cycle ((Count/Cycle))
system.cpu0.totalIpc                         0.151409                       # IPC: Total IPC of All Threads ((Count/Cycle))
system.cpu0.intRegfileReads                      8737                       # Number of integer regfile reads (Count)
system.cpu0.intRegfileWrites                     4901                       # Number of integer regfile writes (Count)
system.cpu0.vecRegfileReads                        32                       # number of vector regfile reads (Count)
system.cpu0.ccRegfileReads                      31941                       # number of cc regfile reads (Count)
system.cpu0.ccRegfileWrites                      3763                       # number of cc regfile writes (Count)
system.cpu0.miscRegfileReads                    19737                       # number of misc regfile reads (Count)
system.cpu0.miscRegfileWrites                      46                       # number of misc regfile writes (Count)
system.cpu0.MemDepUnit__0.insertedLoads          2557                       # Number of loads inserted to the mem dependence unit. (Count)
system.cpu0.MemDepUnit__0.insertedStores         1700                       # Number of stores inserted to the mem dependence unit. (Count)
system.cpu0.MemDepUnit__0.conflictingLoads           34                       # Number of conflicting loads. (Count)
system.cpu0.MemDepUnit__0.conflictingStores           24                       # Number of conflicting stores. (Count)
system.cpu0.MemDepUnit__1.insertedLoads             0                       # Number of loads inserted to the mem dependence unit. (Count)
system.cpu0.MemDepUnit__1.insertedStores            0                       # Number of stores inserted to the mem dependence unit. (Count)
system.cpu0.MemDepUnit__1.conflictingLoads            0                       # Number of conflicting loads. (Count)
system.cpu0.MemDepUnit__1.conflictingStores            0                       # Number of conflicting stores. (Count)
system.cpu0.MemDepUnit__2.insertedLoads             0                       # Number of loads inserted to the mem dependence unit. (Count)
system.cpu0.MemDepUnit__2.insertedStores            0                       # Number of stores inserted to the mem dependence unit. (Count)
system.cpu0.MemDepUnit__2.conflictingLoads            0                       # Number of conflicting loads. (Count)
system.cpu0.MemDepUnit__2.conflictingStores            0                       # Number of conflicting stores. (Count)
system.cpu0.MemDepUnit__3.insertedLoads             0                       # Number of loads inserted to the mem dependence unit. (Count)
system.cpu0.MemDepUnit__3.insertedStores            0                       # Number of stores inserted to the mem dependence unit. (Count)
system.cpu0.MemDepUnit__3.conflictingLoads            0                       # Number of conflicting loads. (Count)
system.cpu0.MemDepUnit__3.conflictingStores            0                       # Number of conflicting stores. (Count)
system.cpu0.branchPred.lookups                   3577                       # Number of BP lookups (Count)
system.cpu0.branchPred.condPredicted             2266                       # Number of conditional branches predicted (Count)
system.cpu0.branchPred.condIncorrect              531                       # Number of conditional branches incorrect (Count)
system.cpu0.branchPred.BTBLookups                1757                       # Number of BTB lookups (Count)
system.cpu0.branchPred.BTBHits                   1055                       # Number of BTB hits (Count)
system.cpu0.branchPred.BTBHitRatio           0.600455                       # BTB Hit Ratio (Ratio)
system.cpu0.branchPred.RASUsed                    369                       # Number of times the RAS was used to get a target. (Count)
system.cpu0.branchPred.RASIncorrect                65                       # Number of incorrect RAS predictions. (Count)
system.cpu0.branchPred.indirectLookups            277                       # Number of indirect predictor lookups. (Count)
system.cpu0.branchPred.indirectHits                13                       # Number of indirect target hits. (Count)
system.cpu0.branchPred.indirectMisses             264                       # Number of indirect misses. (Count)
system.cpu0.branchPred.indirectMispredicted           63                       # Number of mispredicted indirect branches. (Count)
system.cpu0.commit.commitSquashedInsts           6099                       # The number of squashed insts skipped by commit (Count)
system.cpu0.commit.commitNonSpecStalls             37                       # The number of times commit has been forced to stall to communicate backwards (Count)
system.cpu0.commit.branchMispredicts              368                       # The number of times a branch was mispredicted (Count)
system.cpu0.commit.numCommittedDist::samples        13468                       # Number of insts commited each cycle (Count)
system.cpu0.commit.numCommittedDist::mean     0.437630                       # Number of insts commited each cycle (Count)
system.cpu0.commit.numCommittedDist::stdev     1.292765                       # Number of insts commited each cycle (Count)
system.cpu0.commit.numCommittedDist::underflows            0      0.00%      0.00% # Number of insts commited each cycle (Count)
system.cpu0.commit.numCommittedDist::0          11247     83.51%     83.51% # Number of insts commited each cycle (Count)
system.cpu0.commit.numCommittedDist::1            941      6.99%     90.50% # Number of insts commited each cycle (Count)
system.cpu0.commit.numCommittedDist::2            474      3.52%     94.02% # Number of insts commited each cycle (Count)
system.cpu0.commit.numCommittedDist::3            221      1.64%     95.66% # Number of insts commited each cycle (Count)
system.cpu0.commit.numCommittedDist::4            111      0.82%     96.48% # Number of insts commited each cycle (Count)
system.cpu0.commit.numCommittedDist::5            235      1.74%     98.23% # Number of insts commited each cycle (Count)
system.cpu0.commit.numCommittedDist::6             74      0.55%     98.77% # Number of insts commited each cycle (Count)
system.cpu0.commit.numCommittedDist::7             41      0.30%     99.08% # Number of insts commited each cycle (Count)
system.cpu0.commit.numCommittedDist::8            124      0.92%    100.00% # Number of insts commited each cycle (Count)
system.cpu0.commit.numCommittedDist::overflows            0      0.00%    100.00% # Number of insts commited each cycle (Count)
system.cpu0.commit.numCommittedDist::min_value            0                       # Number of insts commited each cycle (Count)
system.cpu0.commit.numCommittedDist::max_value            8                       # Number of insts commited each cycle (Count)
system.cpu0.commit.numCommittedDist::total        13468                       # Number of insts commited each cycle (Count)
system.cpu0.commit.instsCommitted                5084                       # Number of instructions committed (Count)
system.cpu0.commit.opsCommitted                  5894                       # Number of ops (including micro ops) committed (Count)
system.cpu0.commit.memRefs                       2050                       # Number of memory references committed (Count)
system.cpu0.commit.loads                         1096                       # Number of loads committed (Count)
system.cpu0.commit.amos                             0                       # Number of atomic instructions committed (Count)
system.cpu0.commit.membars                         12                       # Number of memory barriers committed (Count)
system.cpu0.commit.branches                      1125                       # Number of branches committed (Count)
system.cpu0.commit.vectorInstructions               0                       # Number of committed Vector instructions. (Count)
system.cpu0.commit.floating                         0                       # Number of committed floating point instructions. (Count)
system.cpu0.commit.integer                       5039                       # Number of committed integer instructions. (Count)
system.cpu0.commit.functionCalls                   90                       # Number of function calls committed. (Count)
system.cpu0.commit.committedInstType_0::No_OpClass            0      0.00%      0.00% # Class of committed instruction (Count)
system.cpu0.commit.committedInstType_0::IntAlu         3837     65.10%     65.10% # Class of committed instruction (Count)
system.cpu0.commit.committedInstType_0::IntMult            4      0.07%     65.17% # Class of committed instruction (Count)
system.cpu0.commit.committedInstType_0::IntDiv            0      0.00%     65.17% # Class of committed instruction (Count)
system.cpu0.commit.committedInstType_0::FloatAdd            0      0.00%     65.17% # Class of committed instruction (Count)
system.cpu0.commit.committedInstType_0::FloatCmp            0      0.00%     65.17% # Class of committed instruction (Count)
system.cpu0.commit.committedInstType_0::FloatCvt            0      0.00%     65.17% # Class of committed instruction (Count)
system.cpu0.commit.committedInstType_0::FloatMult            0      0.00%     65.17% # Class of committed instruction (Count)
system.cpu0.commit.committedInstType_0::FloatMultAcc            0      0.00%     65.17% # Class of committed instruction (Count)
system.cpu0.commit.committedInstType_0::FloatDiv            0      0.00%     65.17% # Class of committed instruction (Count)
system.cpu0.commit.committedInstType_0::FloatMisc            0      0.00%     65.17% # Class of committed instruction (Count)
system.cpu0.commit.committedInstType_0::FloatSqrt            0      0.00%     65.17% # Class of committed instruction (Count)
system.cpu0.commit.committedInstType_0::SimdAdd            0      0.00%     65.17% # Class of committed instruction (Count)
system.cpu0.commit.committedInstType_0::SimdAddAcc            0      0.00%     65.17% # Class of committed instruction (Count)
system.cpu0.commit.committedInstType_0::SimdAlu            0      0.00%     65.17% # Class of committed instruction (Count)
system.cpu0.commit.committedInstType_0::SimdCmp            0      0.00%     65.17% # Class of committed instruction (Count)
system.cpu0.commit.committedInstType_0::SimdCvt            0      0.00%     65.17% # Class of committed instruction (Count)
system.cpu0.commit.committedInstType_0::SimdMisc            0      0.00%     65.17% # Class of committed instruction (Count)
system.cpu0.commit.committedInstType_0::SimdMult            0      0.00%     65.17% # Class of committed instruction (Count)
system.cpu0.commit.committedInstType_0::SimdMultAcc            0      0.00%     65.17% # Class of committed instruction (Count)
system.cpu0.commit.committedInstType_0::SimdShift            0      0.00%     65.17% # Class of committed instruction (Count)
system.cpu0.commit.committedInstType_0::SimdShiftAcc            0      0.00%     65.17% # Class of committed instruction (Count)
system.cpu0.commit.committedInstType_0::SimdDiv            0      0.00%     65.17% # Class of committed instruction (Count)
system.cpu0.commit.committedInstType_0::SimdSqrt            0      0.00%     65.17% # Class of committed instruction (Count)
system.cpu0.commit.committedInstType_0::SimdFloatAdd            0      0.00%     65.17% # Class of committed instruction (Count)
system.cpu0.commit.committedInstType_0::SimdFloatAlu            0      0.00%     65.17% # Class of committed instruction (Count)
system.cpu0.commit.committedInstType_0::SimdFloatCmp            0      0.00%     65.17% # Class of committed instruction (Count)
system.cpu0.commit.committedInstType_0::SimdFloatCvt            0      0.00%     65.17% # Class of committed instruction (Count)
system.cpu0.commit.committedInstType_0::SimdFloatDiv            0      0.00%     65.17% # Class of committed instruction (Count)
system.cpu0.commit.committedInstType_0::SimdFloatMisc            3      0.05%     65.22% # Class of committed instruction (Count)
system.cpu0.commit.committedInstType_0::SimdFloatMult            0      0.00%     65.22% # Class of committed instruction (Count)
system.cpu0.commit.committedInstType_0::SimdFloatMultAcc            0      0.00%     65.22% # Class of committed instruction (Count)
system.cpu0.commit.committedInstType_0::SimdFloatSqrt            0      0.00%     65.22% # Class of committed instruction (Count)
system.cpu0.commit.committedInstType_0::SimdReduceAdd            0      0.00%     65.22% # Class of committed instruction (Count)
system.cpu0.commit.committedInstType_0::SimdReduceAlu            0      0.00%     65.22% # Class of committed instruction (Count)
system.cpu0.commit.committedInstType_0::SimdReduceCmp            0      0.00%     65.22% # Class of committed instruction (Count)
system.cpu0.commit.committedInstType_0::SimdFloatReduceAdd            0      0.00%     65.22% # Class of committed instruction (Count)
system.cpu0.commit.committedInstType_0::SimdFloatReduceCmp            0      0.00%     65.22% # Class of committed instruction (Count)
system.cpu0.commit.committedInstType_0::SimdAes            0      0.00%     65.22% # Class of committed instruction (Count)
system.cpu0.commit.committedInstType_0::SimdAesMix            0      0.00%     65.22% # Class of committed instruction (Count)
system.cpu0.commit.committedInstType_0::SimdSha1Hash            0      0.00%     65.22% # Class of committed instruction (Count)
system.cpu0.commit.committedInstType_0::SimdSha1Hash2            0      0.00%     65.22% # Class of committed instruction (Count)
system.cpu0.commit.committedInstType_0::SimdSha256Hash            0      0.00%     65.22% # Class of committed instruction (Count)
system.cpu0.commit.committedInstType_0::SimdSha256Hash2            0      0.00%     65.22% # Class of committed instruction (Count)
system.cpu0.commit.committedInstType_0::SimdShaSigma2            0      0.00%     65.22% # Class of committed instruction (Count)
system.cpu0.commit.committedInstType_0::SimdShaSigma3            0      0.00%     65.22% # Class of committed instruction (Count)
system.cpu0.commit.committedInstType_0::SimdPredAlu            0      0.00%     65.22% # Class of committed instruction (Count)
system.cpu0.commit.committedInstType_0::MemRead         1096     18.60%     83.81% # Class of committed instruction (Count)
system.cpu0.commit.committedInstType_0::MemWrite          954     16.19%    100.00% # Class of committed instruction (Count)
system.cpu0.commit.committedInstType_0::FloatMemRead            0      0.00%    100.00% # Class of committed instruction (Count)
system.cpu0.commit.committedInstType_0::FloatMemWrite            0      0.00%    100.00% # Class of committed instruction (Count)
system.cpu0.commit.committedInstType_0::IprAccess            0      0.00%    100.00% # Class of committed instruction (Count)
system.cpu0.commit.committedInstType_0::InstPrefetch            0      0.00%    100.00% # Class of committed instruction (Count)
system.cpu0.commit.committedInstType_0::total         5894                       # Class of committed instruction (Count)
system.cpu0.commit.commitEligibleSamples          124                       # number cycles where commit BW limit reached (Cycle)
system.cpu0.dcache.demandHits::cpu0.data         2319                       # number of demand (read+write) hits (Count)
system.cpu0.dcache.demandHits::total             2319                       # number of demand (read+write) hits (Count)
system.cpu0.dcache.overallHits::cpu0.data         2319                       # number of overall hits (Count)
system.cpu0.dcache.overallHits::total            2319                       # number of overall hits (Count)
system.cpu0.dcache.demandMisses::cpu0.data          518                       # number of demand (read+write) misses (Count)
system.cpu0.dcache.demandMisses::total            518                       # number of demand (read+write) misses (Count)
system.cpu0.dcache.overallMisses::cpu0.data          518                       # number of overall misses (Count)
system.cpu0.dcache.overallMisses::total           518                       # number of overall misses (Count)
system.cpu0.dcache.demandMissLatency::cpu0.data     33811000                       # number of demand (read+write) miss ticks (Tick)
system.cpu0.dcache.demandMissLatency::total     33811000                       # number of demand (read+write) miss ticks (Tick)
system.cpu0.dcache.overallMissLatency::cpu0.data     33811000                       # number of overall miss ticks (Tick)
system.cpu0.dcache.overallMissLatency::total     33811000                       # number of overall miss ticks (Tick)
system.cpu0.dcache.demandAccesses::cpu0.data         2837                       # number of demand (read+write) accesses (Count)
system.cpu0.dcache.demandAccesses::total         2837                       # number of demand (read+write) accesses (Count)
system.cpu0.dcache.overallAccesses::cpu0.data         2837                       # number of overall (read+write) accesses (Count)
system.cpu0.dcache.overallAccesses::total         2837                       # number of overall (read+write) accesses (Count)
system.cpu0.dcache.demandMissRate::cpu0.data     0.182587                       # miss rate for demand accesses (Ratio)
system.cpu0.dcache.demandMissRate::total     0.182587                       # miss rate for demand accesses (Ratio)
system.cpu0.dcache.overallMissRate::cpu0.data     0.182587                       # miss rate for overall accesses (Ratio)
system.cpu0.dcache.overallMissRate::total     0.182587                       # miss rate for overall accesses (Ratio)
system.cpu0.dcache.demandAvgMissLatency::cpu0.data 65272.200772                       # average overall miss latency ((Cycle/Count))
system.cpu0.dcache.demandAvgMissLatency::total 65272.200772                       # average overall miss latency ((Cycle/Count))
system.cpu0.dcache.overallAvgMissLatency::cpu0.data 65272.200772                       # average overall miss latency ((Cycle/Count))
system.cpu0.dcache.overallAvgMissLatency::total 65272.200772                       # average overall miss latency ((Cycle/Count))
system.cpu0.dcache.blockedCycles::no_mshrs          143                       # number of cycles access was blocked (Cycle)
system.cpu0.dcache.blockedCycles::no_targets            0                       # number of cycles access was blocked (Cycle)
system.cpu0.dcache.blockedCauses::no_mshrs            4                       # number of times access was blocked (Count)
system.cpu0.dcache.blockedCauses::no_targets            0                       # number of times access was blocked (Count)
system.cpu0.dcache.avgBlocked::no_mshrs     35.750000                       # average number of cycles each access was blocked ((Cycle/Count))
system.cpu0.dcache.avgBlocked::no_targets          nan                       # average number of cycles each access was blocked ((Cycle/Count))
system.cpu0.dcache.demandMshrHits::cpu0.data          368                       # number of demand (read+write) MSHR hits (Count)
system.cpu0.dcache.demandMshrHits::total          368                       # number of demand (read+write) MSHR hits (Count)
system.cpu0.dcache.overallMshrHits::cpu0.data          368                       # number of overall MSHR hits (Count)
system.cpu0.dcache.overallMshrHits::total          368                       # number of overall MSHR hits (Count)
system.cpu0.dcache.demandMshrMisses::cpu0.data          150                       # number of demand (read+write) MSHR misses (Count)
system.cpu0.dcache.demandMshrMisses::total          150                       # number of demand (read+write) MSHR misses (Count)
system.cpu0.dcache.overallMshrMisses::cpu0.data          150                       # number of overall MSHR misses (Count)
system.cpu0.dcache.overallMshrMisses::total          150                       # number of overall MSHR misses (Count)
system.cpu0.dcache.demandMshrMissLatency::cpu0.data     10357500                       # number of demand (read+write) MSHR miss ticks (Tick)
system.cpu0.dcache.demandMshrMissLatency::total     10357500                       # number of demand (read+write) MSHR miss ticks (Tick)
system.cpu0.dcache.overallMshrMissLatency::cpu0.data     10357500                       # number of overall MSHR miss ticks (Tick)
system.cpu0.dcache.overallMshrMissLatency::total     10357500                       # number of overall MSHR miss ticks (Tick)
system.cpu0.dcache.demandMshrMissRate::cpu0.data     0.052873                       # mshr miss ratio for demand accesses (Ratio)
system.cpu0.dcache.demandMshrMissRate::total     0.052873                       # mshr miss ratio for demand accesses (Ratio)
system.cpu0.dcache.overallMshrMissRate::cpu0.data     0.052873                       # mshr miss ratio for overall accesses (Ratio)
system.cpu0.dcache.overallMshrMissRate::total     0.052873                       # mshr miss ratio for overall accesses (Ratio)
system.cpu0.dcache.demandAvgMshrMissLatency::cpu0.data        69050                       # average overall mshr miss latency ((Cycle/Count))
system.cpu0.dcache.demandAvgMshrMissLatency::total        69050                       # average overall mshr miss latency ((Cycle/Count))
system.cpu0.dcache.overallAvgMshrMissLatency::cpu0.data        69050                       # average overall mshr miss latency ((Cycle/Count))
system.cpu0.dcache.overallAvgMshrMissLatency::total        69050                       # average overall mshr miss latency ((Cycle/Count))
system.cpu0.dcache.replacements                     2                       # number of replacements (Count)
system.cpu0.dcache.LoadLockedReq.hits::cpu0.data           10                       # number of LoadLockedReq hits (Count)
system.cpu0.dcache.LoadLockedReq.hits::total           10                       # number of LoadLockedReq hits (Count)
system.cpu0.dcache.LoadLockedReq.misses::cpu0.data            2                       # number of LoadLockedReq misses (Count)
system.cpu0.dcache.LoadLockedReq.misses::total            2                       # number of LoadLockedReq misses (Count)
system.cpu0.dcache.LoadLockedReq.missLatency::cpu0.data       133500                       # number of LoadLockedReq miss ticks (Tick)
system.cpu0.dcache.LoadLockedReq.missLatency::total       133500                       # number of LoadLockedReq miss ticks (Tick)
system.cpu0.dcache.LoadLockedReq.accesses::cpu0.data           12                       # number of LoadLockedReq accesses(hits+misses) (Count)
system.cpu0.dcache.LoadLockedReq.accesses::total           12                       # number of LoadLockedReq accesses(hits+misses) (Count)
system.cpu0.dcache.LoadLockedReq.missRate::cpu0.data     0.166667                       # miss rate for LoadLockedReq accesses (Ratio)
system.cpu0.dcache.LoadLockedReq.missRate::total     0.166667                       # miss rate for LoadLockedReq accesses (Ratio)
system.cpu0.dcache.LoadLockedReq.avgMissLatency::cpu0.data        66750                       # average LoadLockedReq miss latency ((Tick/Count))
system.cpu0.dcache.LoadLockedReq.avgMissLatency::total        66750                       # average LoadLockedReq miss latency ((Tick/Count))
system.cpu0.dcache.LoadLockedReq.mshrHits::cpu0.data            2                       # number of LoadLockedReq MSHR hits (Count)
system.cpu0.dcache.LoadLockedReq.mshrHits::total            2                       # number of LoadLockedReq MSHR hits (Count)
system.cpu0.dcache.ReadReq.hits::cpu0.data         1699                       # number of ReadReq hits (Count)
system.cpu0.dcache.ReadReq.hits::total           1699                       # number of ReadReq hits (Count)
system.cpu0.dcache.ReadReq.misses::cpu0.data          209                       # number of ReadReq misses (Count)
system.cpu0.dcache.ReadReq.misses::total          209                       # number of ReadReq misses (Count)
system.cpu0.dcache.ReadReq.missLatency::cpu0.data     13230500                       # number of ReadReq miss ticks (Tick)
system.cpu0.dcache.ReadReq.missLatency::total     13230500                       # number of ReadReq miss ticks (Tick)
system.cpu0.dcache.ReadReq.accesses::cpu0.data         1908                       # number of ReadReq accesses(hits+misses) (Count)
system.cpu0.dcache.ReadReq.accesses::total         1908                       # number of ReadReq accesses(hits+misses) (Count)
system.cpu0.dcache.ReadReq.missRate::cpu0.data     0.109539                       # miss rate for ReadReq accesses (Ratio)
system.cpu0.dcache.ReadReq.missRate::total     0.109539                       # miss rate for ReadReq accesses (Ratio)
system.cpu0.dcache.ReadReq.avgMissLatency::cpu0.data 63303.827751                       # average ReadReq miss latency ((Tick/Count))
system.cpu0.dcache.ReadReq.avgMissLatency::total 63303.827751                       # average ReadReq miss latency ((Tick/Count))
system.cpu0.dcache.ReadReq.mshrHits::cpu0.data          100                       # number of ReadReq MSHR hits (Count)
system.cpu0.dcache.ReadReq.mshrHits::total          100                       # number of ReadReq MSHR hits (Count)
system.cpu0.dcache.ReadReq.mshrMisses::cpu0.data          109                       # number of ReadReq MSHR misses (Count)
system.cpu0.dcache.ReadReq.mshrMisses::total          109                       # number of ReadReq MSHR misses (Count)
system.cpu0.dcache.ReadReq.mshrMissLatency::cpu0.data      7207000                       # number of ReadReq MSHR miss ticks (Tick)
system.cpu0.dcache.ReadReq.mshrMissLatency::total      7207000                       # number of ReadReq MSHR miss ticks (Tick)
system.cpu0.dcache.ReadReq.mshrMissRate::cpu0.data     0.057128                       # mshr miss rate for ReadReq accesses (Ratio)
system.cpu0.dcache.ReadReq.mshrMissRate::total     0.057128                       # mshr miss rate for ReadReq accesses (Ratio)
system.cpu0.dcache.ReadReq.avgMshrMissLatency::cpu0.data 66119.266055                       # average ReadReq mshr miss latency ((Tick/Count))
system.cpu0.dcache.ReadReq.avgMshrMissLatency::total 66119.266055                       # average ReadReq mshr miss latency ((Tick/Count))
system.cpu0.dcache.StoreCondReq.hits::cpu0.data           11                       # number of StoreCondReq hits (Count)
system.cpu0.dcache.StoreCondReq.hits::total           11                       # number of StoreCondReq hits (Count)
system.cpu0.dcache.StoreCondReq.accesses::cpu0.data           11                       # number of StoreCondReq accesses(hits+misses) (Count)
system.cpu0.dcache.StoreCondReq.accesses::total           11                       # number of StoreCondReq accesses(hits+misses) (Count)
system.cpu0.dcache.WriteReq.hits::cpu0.data          620                       # number of WriteReq hits (Count)
system.cpu0.dcache.WriteReq.hits::total           620                       # number of WriteReq hits (Count)
system.cpu0.dcache.WriteReq.misses::cpu0.data          309                       # number of WriteReq misses (Count)
system.cpu0.dcache.WriteReq.misses::total          309                       # number of WriteReq misses (Count)
system.cpu0.dcache.WriteReq.missLatency::cpu0.data     20580500                       # number of WriteReq miss ticks (Tick)
system.cpu0.dcache.WriteReq.missLatency::total     20580500                       # number of WriteReq miss ticks (Tick)
system.cpu0.dcache.WriteReq.accesses::cpu0.data          929                       # number of WriteReq accesses(hits+misses) (Count)
system.cpu0.dcache.WriteReq.accesses::total          929                       # number of WriteReq accesses(hits+misses) (Count)
system.cpu0.dcache.WriteReq.missRate::cpu0.data     0.332616                       # miss rate for WriteReq accesses (Ratio)
system.cpu0.dcache.WriteReq.missRate::total     0.332616                       # miss rate for WriteReq accesses (Ratio)
system.cpu0.dcache.WriteReq.avgMissLatency::cpu0.data 66603.559871                       # average WriteReq miss latency ((Tick/Count))
system.cpu0.dcache.WriteReq.avgMissLatency::total 66603.559871                       # average WriteReq miss latency ((Tick/Count))
system.cpu0.dcache.WriteReq.mshrHits::cpu0.data          268                       # number of WriteReq MSHR hits (Count)
system.cpu0.dcache.WriteReq.mshrHits::total          268                       # number of WriteReq MSHR hits (Count)
system.cpu0.dcache.WriteReq.mshrMisses::cpu0.data           41                       # number of WriteReq MSHR misses (Count)
system.cpu0.dcache.WriteReq.mshrMisses::total           41                       # number of WriteReq MSHR misses (Count)
system.cpu0.dcache.WriteReq.mshrMissLatency::cpu0.data      3150500                       # number of WriteReq MSHR miss ticks (Tick)
system.cpu0.dcache.WriteReq.mshrMissLatency::total      3150500                       # number of WriteReq MSHR miss ticks (Tick)
system.cpu0.dcache.WriteReq.mshrMissRate::cpu0.data     0.044133                       # mshr miss rate for WriteReq accesses (Ratio)
system.cpu0.dcache.WriteReq.mshrMissRate::total     0.044133                       # mshr miss rate for WriteReq accesses (Ratio)
system.cpu0.dcache.WriteReq.avgMshrMissLatency::cpu0.data 76841.463415                       # average WriteReq mshr miss latency ((Tick/Count))
system.cpu0.dcache.WriteReq.avgMshrMissLatency::total 76841.463415                       # average WriteReq mshr miss latency ((Tick/Count))
system.cpu0.dcache.power_state.pwrStateResidencyTicks::UNDEFINED     16788500                       # Cumulative time (in ticks) in various power states (Tick)
system.cpu0.dcache.tags.tagsInUse           90.115499                       # Average ticks per tags in use ((Tick/Count))
system.cpu0.dcache.tags.totalRefs                2490                       # Total number of references to valid blocks. (Count)
system.cpu0.dcache.tags.sampledRefs               150                       # Sample count of references to valid blocks. (Count)
system.cpu0.dcache.tags.avgRefs             16.600000                       # Average number of references to valid blocks. ((Count/Count))
system.cpu0.dcache.tags.warmupTick              99000                       # The tick when the warmup percentage was hit. (Tick)
system.cpu0.dcache.tags.occupancies::cpu0.data    90.115499                       # Average occupied blocks per tick, per requestor ((Count/Tick))
system.cpu0.dcache.tags.avgOccs::cpu0.data     0.176007                       # Average percentage of cache occupancy ((Ratio/Tick))
system.cpu0.dcache.tags.avgOccs::total       0.176007                       # Average percentage of cache occupancy ((Ratio/Tick))
system.cpu0.dcache.tags.occupanciesTaskId::1024          148                       # Occupied blocks per task id (Count)
system.cpu0.dcache.tags.ageTaskId_1024::0           57                       # Occupied blocks per task id, per block age (Count)
system.cpu0.dcache.tags.ageTaskId_1024::1           91                       # Occupied blocks per task id, per block age (Count)
system.cpu0.dcache.tags.ratioOccsTaskId::1024     0.289062                       # Ratio of occupied blocks and all blocks, per task id (Ratio)
system.cpu0.dcache.tags.tagAccesses              5870                       # Number of tag accesses (Count)
system.cpu0.dcache.tags.dataAccesses             5870                       # Number of data accesses (Count)
system.cpu0.dcache.tags.power_state.pwrStateResidencyTicks::UNDEFINED     16788500                       # Cumulative time (in ticks) in various power states (Tick)
system.cpu0.decode.idleCycles                    6589                       # Number of cycles decode is idle (Cycle)
system.cpu0.decode.blockedCycles                 4821                       # Number of cycles decode is blocked (Cycle)
system.cpu0.decode.runCycles                     2548                       # Number of cycles decode is running (Cycle)
system.cpu0.decode.unblockCycles                  176                       # Number of cycles decode is unblocking (Cycle)
system.cpu0.decode.squashCycles                   397                       # Number of cycles decode is squashing (Cycle)
system.cpu0.decode.branchResolved                1118                       # Number of times decode resolved a branch (Count)
system.cpu0.decode.branchMispred                  176                       # Number of times decode detected a branch misprediction (Count)
system.cpu0.decode.decodedInsts                 14677                       # Number of instructions handled by decode (Count)
system.cpu0.decode.squashedInsts                  509                       # Number of squashed instructions handled by decode (Count)
system.cpu0.fetch.icacheStallCycles              8243                       # Number of cycles fetch is stalled on an Icache miss (Cycle)
system.cpu0.fetch.insts                         15160                       # Number of instructions fetch has processed (Count)
system.cpu0.fetch.branches                       3577                       # Number of branches that fetch encountered (Count)
system.cpu0.fetch.predictedBranches              1437                       # Number of branches that fetch has predicted taken (Count)
system.cpu0.fetch.cycles                         5710                       # Number of cycles fetch has run and was not squashing or blocked (Cycle)
system.cpu0.fetch.squashCycles                   1120                       # Number of cycles fetch has spent squashing (Cycle)
system.cpu0.fetch.miscStallCycles                   1                       # Number of cycles fetch has spent waiting on interrupts, or bad addresses, or out of MSHRs (Cycle)
system.cpu0.fetch.icacheWaitRetryStallCycles           17                       # Number of stall cycles due to full MSHR (Cycle)
system.cpu0.fetch.cacheLines                     2289                       # Number of cache lines fetched (Count)
system.cpu0.fetch.icacheSquashes                  313                       # Number of outstanding Icache misses that were squashed (Count)
system.cpu0.fetch.nisnDist::samples             14531                       # Number of instructions fetched each cycle (Total) (Count)
system.cpu0.fetch.nisnDist::mean             1.229922                       # Number of instructions fetched each cycle (Total) (Count)
system.cpu0.fetch.nisnDist::stdev            2.591861                       # Number of instructions fetched each cycle (Total) (Count)
system.cpu0.fetch.nisnDist::underflows              0      0.00%      0.00% # Number of instructions fetched each cycle (Total) (Count)
system.cpu0.fetch.nisnDist::0                   11284     77.65%     77.65% # Number of instructions fetched each cycle (Total) (Count)
system.cpu0.fetch.nisnDist::1                     358      2.46%     80.12% # Number of instructions fetched each cycle (Total) (Count)
system.cpu0.fetch.nisnDist::2                     222      1.53%     81.65% # Number of instructions fetched each cycle (Total) (Count)
system.cpu0.fetch.nisnDist::3                     270      1.86%     83.50% # Number of instructions fetched each cycle (Total) (Count)
system.cpu0.fetch.nisnDist::4                     284      1.95%     85.46% # Number of instructions fetched each cycle (Total) (Count)
system.cpu0.fetch.nisnDist::5                     419      2.88%     88.34% # Number of instructions fetched each cycle (Total) (Count)
system.cpu0.fetch.nisnDist::6                     162      1.11%     89.46% # Number of instructions fetched each cycle (Total) (Count)
system.cpu0.fetch.nisnDist::7                     199      1.37%     90.83% # Number of instructions fetched each cycle (Total) (Count)
system.cpu0.fetch.nisnDist::8                    1333      9.17%    100.00% # Number of instructions fetched each cycle (Total) (Count)
system.cpu0.fetch.nisnDist::overflows               0      0.00%    100.00% # Number of instructions fetched each cycle (Total) (Count)
system.cpu0.fetch.nisnDist::min_value               0                       # Number of instructions fetched each cycle (Total) (Count)
system.cpu0.fetch.nisnDist::max_value               8                       # Number of instructions fetched each cycle (Total) (Count)
system.cpu0.fetch.nisnDist::total               14531                       # Number of instructions fetched each cycle (Total) (Count)
system.cpu0.fetch.branchRate                 0.106528                       # Number of branch fetches per cycle (Ratio)
system.cpu0.fetch.rate                       0.451486                       # Number of inst fetches per cycle ((Count/Cycle))
system.cpu0.icache.demandHits::cpu0.inst         1885                       # number of demand (read+write) hits (Count)
system.cpu0.icache.demandHits::total             1885                       # number of demand (read+write) hits (Count)
system.cpu0.icache.overallHits::cpu0.inst         1885                       # number of overall hits (Count)
system.cpu0.icache.overallHits::total            1885                       # number of overall hits (Count)
system.cpu0.icache.demandMisses::cpu0.inst          404                       # number of demand (read+write) misses (Count)
system.cpu0.icache.demandMisses::total            404                       # number of demand (read+write) misses (Count)
system.cpu0.icache.overallMisses::cpu0.inst          404                       # number of overall misses (Count)
system.cpu0.icache.overallMisses::total           404                       # number of overall misses (Count)
system.cpu0.icache.demandMissLatency::cpu0.inst     26134500                       # number of demand (read+write) miss ticks (Tick)
system.cpu0.icache.demandMissLatency::total     26134500                       # number of demand (read+write) miss ticks (Tick)
system.cpu0.icache.overallMissLatency::cpu0.inst     26134500                       # number of overall miss ticks (Tick)
system.cpu0.icache.overallMissLatency::total     26134500                       # number of overall miss ticks (Tick)
system.cpu0.icache.demandAccesses::cpu0.inst         2289                       # number of demand (read+write) accesses (Count)
system.cpu0.icache.demandAccesses::total         2289                       # number of demand (read+write) accesses (Count)
system.cpu0.icache.overallAccesses::cpu0.inst         2289                       # number of overall (read+write) accesses (Count)
system.cpu0.icache.overallAccesses::total         2289                       # number of overall (read+write) accesses (Count)
system.cpu0.icache.demandMissRate::cpu0.inst     0.176496                       # miss rate for demand accesses (Ratio)
system.cpu0.icache.demandMissRate::total     0.176496                       # miss rate for demand accesses (Ratio)
system.cpu0.icache.overallMissRate::cpu0.inst     0.176496                       # miss rate for overall accesses (Ratio)
system.cpu0.icache.overallMissRate::total     0.176496                       # miss rate for overall accesses (Ratio)
system.cpu0.icache.demandAvgMissLatency::cpu0.inst 64689.356436                       # average overall miss latency ((Cycle/Count))
system.cpu0.icache.demandAvgMissLatency::total 64689.356436                       # average overall miss latency ((Cycle/Count))
system.cpu0.icache.overallAvgMissLatency::cpu0.inst 64689.356436                       # average overall miss latency ((Cycle/Count))
system.cpu0.icache.overallAvgMissLatency::total 64689.356436                       # average overall miss latency ((Cycle/Count))
system.cpu0.icache.blockedCycles::no_mshrs          317                       # number of cycles access was blocked (Cycle)
system.cpu0.icache.blockedCycles::no_targets            0                       # number of cycles access was blocked (Cycle)
system.cpu0.icache.blockedCauses::no_mshrs            5                       # number of times access was blocked (Count)
system.cpu0.icache.blockedCauses::no_targets            0                       # number of times access was blocked (Count)
system.cpu0.icache.avgBlocked::no_mshrs     63.400000                       # average number of cycles each access was blocked ((Cycle/Count))
system.cpu0.icache.avgBlocked::no_targets          nan                       # average number of cycles each access was blocked ((Cycle/Count))
system.cpu0.icache.demandMshrHits::cpu0.inst           97                       # number of demand (read+write) MSHR hits (Count)
system.cpu0.icache.demandMshrHits::total           97                       # number of demand (read+write) MSHR hits (Count)
system.cpu0.icache.overallMshrHits::cpu0.inst           97                       # number of overall MSHR hits (Count)
system.cpu0.icache.overallMshrHits::total           97                       # number of overall MSHR hits (Count)
system.cpu0.icache.demandMshrMisses::cpu0.inst          307                       # number of demand (read+write) MSHR misses (Count)
system.cpu0.icache.demandMshrMisses::total          307                       # number of demand (read+write) MSHR misses (Count)
system.cpu0.icache.overallMshrMisses::cpu0.inst          307                       # number of overall MSHR misses (Count)
system.cpu0.icache.overallMshrMisses::total          307                       # number of overall MSHR misses (Count)
system.cpu0.icache.demandMshrMissLatency::cpu0.inst     20855000                       # number of demand (read+write) MSHR miss ticks (Tick)
system.cpu0.icache.demandMshrMissLatency::total     20855000                       # number of demand (read+write) MSHR miss ticks (Tick)
system.cpu0.icache.overallMshrMissLatency::cpu0.inst     20855000                       # number of overall MSHR miss ticks (Tick)
system.cpu0.icache.overallMshrMissLatency::total     20855000                       # number of overall MSHR miss ticks (Tick)
system.cpu0.icache.demandMshrMissRate::cpu0.inst     0.134120                       # mshr miss ratio for demand accesses (Ratio)
system.cpu0.icache.demandMshrMissRate::total     0.134120                       # mshr miss ratio for demand accesses (Ratio)
system.cpu0.icache.overallMshrMissRate::cpu0.inst     0.134120                       # mshr miss ratio for overall accesses (Ratio)
system.cpu0.icache.overallMshrMissRate::total     0.134120                       # mshr miss ratio for overall accesses (Ratio)
system.cpu0.icache.demandAvgMshrMissLatency::cpu0.inst 67931.596091                       # average overall mshr miss latency ((Cycle/Count))
system.cpu0.icache.demandAvgMshrMissLatency::total 67931.596091                       # average overall mshr miss latency ((Cycle/Count))
system.cpu0.icache.overallAvgMshrMissLatency::cpu0.inst 67931.596091                       # average overall mshr miss latency ((Cycle/Count))
system.cpu0.icache.overallAvgMshrMissLatency::total 67931.596091                       # average overall mshr miss latency ((Cycle/Count))
system.cpu0.icache.replacements                    49                       # number of replacements (Count)
system.cpu0.icache.ReadReq.hits::cpu0.inst         1885                       # number of ReadReq hits (Count)
system.cpu0.icache.ReadReq.hits::total           1885                       # number of ReadReq hits (Count)
system.cpu0.icache.ReadReq.misses::cpu0.inst          404                       # number of ReadReq misses (Count)
system.cpu0.icache.ReadReq.misses::total          404                       # number of ReadReq misses (Count)
system.cpu0.icache.ReadReq.missLatency::cpu0.inst     26134500                       # number of ReadReq miss ticks (Tick)
system.cpu0.icache.ReadReq.missLatency::total     26134500                       # number of ReadReq miss ticks (Tick)
system.cpu0.icache.ReadReq.accesses::cpu0.inst         2289                       # number of ReadReq accesses(hits+misses) (Count)
system.cpu0.icache.ReadReq.accesses::total         2289                       # number of ReadReq accesses(hits+misses) (Count)
system.cpu0.icache.ReadReq.missRate::cpu0.inst     0.176496                       # miss rate for ReadReq accesses (Ratio)
system.cpu0.icache.ReadReq.missRate::total     0.176496                       # miss rate for ReadReq accesses (Ratio)
system.cpu0.icache.ReadReq.avgMissLatency::cpu0.inst 64689.356436                       # average ReadReq miss latency ((Tick/Count))
system.cpu0.icache.ReadReq.avgMissLatency::total 64689.356436                       # average ReadReq miss latency ((Tick/Count))
system.cpu0.icache.ReadReq.mshrHits::cpu0.inst           97                       # number of ReadReq MSHR hits (Count)
system.cpu0.icache.ReadReq.mshrHits::total           97                       # number of ReadReq MSHR hits (Count)
system.cpu0.icache.ReadReq.mshrMisses::cpu0.inst          307                       # number of ReadReq MSHR misses (Count)
system.cpu0.icache.ReadReq.mshrMisses::total          307                       # number of ReadReq MSHR misses (Count)
system.cpu0.icache.ReadReq.mshrMissLatency::cpu0.inst     20855000                       # number of ReadReq MSHR miss ticks (Tick)
system.cpu0.icache.ReadReq.mshrMissLatency::total     20855000                       # number of ReadReq MSHR miss ticks (Tick)
system.cpu0.icache.ReadReq.mshrMissRate::cpu0.inst     0.134120                       # mshr miss rate for ReadReq accesses (Ratio)
system.cpu0.icache.ReadReq.mshrMissRate::total     0.134120                       # mshr miss rate for ReadReq accesses (Ratio)
system.cpu0.icache.ReadReq.avgMshrMissLatency::cpu0.inst 67931.596091                       # average ReadReq mshr miss latency ((Tick/Count))
system.cpu0.icache.ReadReq.avgMshrMissLatency::total 67931.596091                       # average ReadReq mshr miss latency ((Tick/Count))
system.cpu0.icache.power_state.pwrStateResidencyTicks::UNDEFINED     16788500                       # Cumulative time (in ticks) in various power states (Tick)
system.cpu0.icache.tags.tagsInUse          141.829950                       # Average ticks per tags in use ((Tick/Count))
system.cpu0.icache.tags.totalRefs                2192                       # Total number of references to valid blocks. (Count)
system.cpu0.icache.tags.sampledRefs               307                       # Sample count of references to valid blocks. (Count)
system.cpu0.icache.tags.avgRefs              7.140065                       # Average number of references to valid blocks. ((Count/Count))
system.cpu0.icache.tags.warmupTick              82000                       # The tick when the warmup percentage was hit. (Tick)
system.cpu0.icache.tags.occupancies::cpu0.inst   141.829950                       # Average occupied blocks per tick, per requestor ((Count/Tick))
system.cpu0.icache.tags.avgOccs::cpu0.inst     0.277012                       # Average percentage of cache occupancy ((Ratio/Tick))
system.cpu0.icache.tags.avgOccs::total       0.277012                       # Average percentage of cache occupancy ((Ratio/Tick))
system.cpu0.icache.tags.occupanciesTaskId::1024          258                       # Occupied blocks per task id (Count)
system.cpu0.icache.tags.ageTaskId_1024::0          173                       # Occupied blocks per task id, per block age (Count)
system.cpu0.icache.tags.ageTaskId_1024::1           85                       # Occupied blocks per task id, per block age (Count)
system.cpu0.icache.tags.ratioOccsTaskId::1024     0.503906                       # Ratio of occupied blocks and all blocks, per task id (Ratio)
system.cpu0.icache.tags.tagAccesses              4885                       # Number of tag accesses (Count)
system.cpu0.icache.tags.dataAccesses             4885                       # Number of data accesses (Count)
system.cpu0.icache.tags.power_state.pwrStateResidencyTicks::UNDEFINED     16788500                       # Cumulative time (in ticks) in various power states (Tick)
system.cpu0.iew.idleCycles                          0                       # Number of cycles IEW is idle (Cycle)
system.cpu0.iew.squashCycles                      397                       # Number of cycles IEW is squashing (Cycle)
system.cpu0.iew.blockCycles                       745                       # Number of cycles IEW is blocking (Cycle)
system.cpu0.iew.unblockCycles                      11                       # Number of cycles IEW is unblocking (Cycle)
system.cpu0.iew.dispatchedInsts                 12056                       # Number of instructions dispatched to IQ (Count)
system.cpu0.iew.dispSquashedInsts                 205                       # Number of squashed instructions skipped by dispatch (Count)
system.cpu0.iew.dispLoadInsts                    2557                       # Number of dispatched load instructions (Count)
system.cpu0.iew.dispStoreInsts                   1700                       # Number of dispatched store instructions (Count)
system.cpu0.iew.dispNonSpecInsts                   32                       # Number of dispatched non-speculative instructions (Count)
system.cpu0.iew.iqFullEvents                        7                       # Number of times the IQ has become full, causing a stall (Count)
system.cpu0.iew.lsqFullEvents                       4                       # Number of times the LSQ has become full, causing a stall (Count)
system.cpu0.iew.memOrderViolationEvents            21                       # Number of memory order violations (Count)
system.cpu0.iew.predictedTakenIncorrect           104                       # Number of branches that were predicted taken incorrectly (Count)
system.cpu0.iew.predictedNotTakenIncorrect          313                       # Number of branches that were predicted not taken incorrectly (Count)
system.cpu0.iew.branchMispredicts                 417                       # Number of branch mispredicts detected at execute (Count)
system.cpu0.iew.instsToCommit                    8665                       # Cumulative count of insts sent to commit (Count)
system.cpu0.iew.writebackCount                   8533                       # Cumulative count of insts written-back (Count)
system.cpu0.iew.producerInst                     4034                       # Number of instructions producing a value (Count)
system.cpu0.iew.consumerInst                     7750                       # Number of instructions consuming a value (Count)
system.cpu0.iew.wbRate                       0.254125                       # Insts written-back per cycle ((Count/Cycle))
system.cpu0.iew.wbFanout                     0.520516                       # Average fanout of values written-back ((Count/Count))
system.cpu0.lsq0.forwLoads                         23                       # Number of loads that had data forwarded from stores (Count)
system.cpu0.lsq0.squashedLoads                   1461                       # Number of loads squashed (Count)
system.cpu0.lsq0.ignoredResponses                   0                       # Number of memory responses ignored because the instruction is squashed (Count)
system.cpu0.lsq0.memOrderViolation                 21                       # Number of memory ordering violations (Count)
system.cpu0.lsq0.squashedStores                   746                       # Number of stores squashed (Count)
system.cpu0.lsq0.rescheduledLoads                  39                       # Number of loads that were rescheduled (Count)
system.cpu0.lsq0.blockedByCache                     2                       # Number of times an access to memory failed due to the cache being blocked (Count)
system.cpu0.lsq0.loadToUse::samples              1096                       # Distribution of cycle latency between the first time a load is issued and its completion (Unspecified)
system.cpu0.lsq0.loadToUse::mean            19.662409                       # Distribution of cycle latency between the first time a load is issued and its completion (Unspecified)
system.cpu0.lsq0.loadToUse::stdev           56.385343                       # Distribution of cycle latency between the first time a load is issued and its completion (Unspecified)
system.cpu0.lsq0.loadToUse::0-9                   956     87.23%     87.23% # Distribution of cycle latency between the first time a load is issued and its completion (Unspecified)
system.cpu0.lsq0.loadToUse::10-19                  10      0.91%     88.14% # Distribution of cycle latency between the first time a load is issued and its completion (Unspecified)
system.cpu0.lsq0.loadToUse::20-29                  18      1.64%     89.78% # Distribution of cycle latency between the first time a load is issued and its completion (Unspecified)
system.cpu0.lsq0.loadToUse::30-39                   4      0.36%     90.15% # Distribution of cycle latency between the first time a load is issued and its completion (Unspecified)
system.cpu0.lsq0.loadToUse::70-79                   3      0.27%     90.42% # Distribution of cycle latency between the first time a load is issued and its completion (Unspecified)
system.cpu0.lsq0.loadToUse::80-89                   2      0.18%     90.60% # Distribution of cycle latency between the first time a load is issued and its completion (Unspecified)
system.cpu0.lsq0.loadToUse::120-129                 3      0.27%     90.88% # Distribution of cycle latency between the first time a load is issued and its completion (Unspecified)
system.cpu0.lsq0.loadToUse::130-139                31      2.83%     93.70% # Distribution of cycle latency between the first time a load is issued and its completion (Unspecified)
system.cpu0.lsq0.loadToUse::140-149                33      3.01%     96.72% # Distribution of cycle latency between the first time a load is issued and its completion (Unspecified)
system.cpu0.lsq0.loadToUse::150-159                11      1.00%     97.72% # Distribution of cycle latency between the first time a load is issued and its completion (Unspecified)
system.cpu0.lsq0.loadToUse::160-169                 7      0.64%     98.36% # Distribution of cycle latency between the first time a load is issued and its completion (Unspecified)
system.cpu0.lsq0.loadToUse::170-179                 7      0.64%     99.00% # Distribution of cycle latency between the first time a load is issued and its completion (Unspecified)
system.cpu0.lsq0.loadToUse::180-189                 1      0.09%     99.09% # Distribution of cycle latency between the first time a load is issued and its completion (Unspecified)
system.cpu0.lsq0.loadToUse::190-199                 5      0.46%     99.54% # Distribution of cycle latency between the first time a load is issued and its completion (Unspecified)
system.cpu0.lsq0.loadToUse::200-209                 1      0.09%     99.64% # Distribution of cycle latency between the first time a load is issued and its completion (Unspecified)
system.cpu0.lsq0.loadToUse::overflows               4      0.36%    100.00% # Distribution of cycle latency between the first time a load is issued and its completion (Unspecified)
system.cpu0.lsq0.loadToUse::min_value               1                       # Distribution of cycle latency between the first time a load is issued and its completion (Unspecified)
system.cpu0.lsq0.loadToUse::max_value             649                       # Distribution of cycle latency between the first time a load is issued and its completion (Unspecified)
system.cpu0.lsq0.loadToUse::total                1096                       # Distribution of cycle latency between the first time a load is issued and its completion (Unspecified)
system.cpu0.mmu.alignFaults                         0                       # Number of MMU faults due to alignment restrictions (Count)
system.cpu0.mmu.prefetchFaults                      0                       # Number of MMU faults due to prefetch (Count)
system.cpu0.mmu.domainFaults                        0                       # Number of MMU faults due to domain restrictions (Count)
system.cpu0.mmu.permsFaults                         0                       # Number of MMU faults due to permissions restrictions (Count)
system.cpu0.mmu.dtb.readHits                        0                       # Read hits (Count)
[...]
system.mem_ctrl.requestorReadAccesses::cpu0.data          123                       # Per-requestor read serviced memory accesses (Count)
system.mem_ctrl.requestorReadTotalLat::cpu0.inst      7217000                       # Per-requestor read total memory access latency (Tick)
system.mem_ctrl.requestorReadTotalLat::cpu0.data      3832250                       # Per-requestor read total memory access latency (Tick)
system.mem_ctrl.requestorReadAvgLat::cpu0.inst     25592.20                       # Per-requestor read average memory access latency ((Tick/Count))
system.mem_ctrl.requestorReadAvgLat::cpu0.data     31156.50                       # Per-requestor read average memory access latency ((Tick/Count))
system.mem_ctrl.dram.bytesRead::cpu0.inst        18048                       # Number of bytes read from this memory (Byte)
system.mem_ctrl.dram.bytesRead::cpu0.data         7872                       # Number of bytes read from this memory (Byte)
system.mem_ctrl.dram.bytesRead::total           25920                       # Number of bytes read from this memory (Byte)
system.mem_ctrl.dram.bytesInstRead::cpu0.inst        18048                       # Number of instructions bytes read from this memory (Byte)
system.mem_ctrl.dram.bytesInstRead::total        18048                       # Number of instructions bytes read from this memory (Byte)
system.mem_ctrl.dram.numReads::cpu0.inst          282                       # Number of read requests responded to by this memory (Count)
system.mem_ctrl.dram.numReads::cpu0.data          123                       # Number of read requests responded to by this memory (Count)
system.mem_ctrl.dram.numReads::total              405                       # Number of read requests responded to by this memory (Count)
system.mem_ctrl.dram.bwRead::cpu0.inst     1075021592                       # Total read bandwidth from this memory ((Byte/Second))
system.mem_ctrl.dram.bwRead::cpu0.data      468892397                       # Total read bandwidth from this memory ((Byte/Second))
system.mem_ctrl.dram.bwRead::total         1543913989                       # Total read bandwidth from this memory ((Byte/Second))
system.mem_ctrl.dram.bwInstRead::cpu0.inst   1075021592                       # Instruction read bandwidth from this memory ((Byte/Second))
system.mem_ctrl.dram.bwInstRead::total     1075021592                       # Instruction read bandwidth from this memory ((Byte/Second))
system.mem_ctrl.dram.bwTotal::cpu0.inst    1075021592                       # Total bandwidth to/from this memory ((Byte/Second))
system.mem_ctrl.dram.bwTotal::cpu0.data     468892397                       # Total bandwidth to/from this memory ((Byte/Second))
system.mem_ctrl.dram.bwTotal::total        1543913989                       # Total bandwidth to/from this memory ((Byte/Second))
system.mem_ctrl.dram.readBursts                   405                       # Number of DRAM read bursts (Count)
system.mem_ctrl.dram.writeBursts                    0                       # Number of DRAM write bursts (Count)
system.mem_ctrl.dram.perBankRdBursts::0            92                       # Per bank write bursts (Count)
system.mem_ctrl.dram.perBankRdBursts::1            45                       # Per bank write bursts (Count)
system.mem_ctrl.dram.perBankRdBursts::2            20                       # Per bank write bursts (Count)
system.mem_ctrl.dram.perBankRdBursts::3            43                       # Per bank write bursts (Count)
system.mem_ctrl.dram.perBankRdBursts::4            18                       # Per bank write bursts (Count)
system.mem_ctrl.dram.perBankRdBursts::5            34                       # Per bank write bursts (Count)
system.mem_ctrl.dram.perBankRdBursts::6            37                       # Per bank write bursts (Count)
system.mem_ctrl.dram.perBankRdBursts::7            10                       # Per bank write bursts (Count)
system.mem_ctrl.dram.perBankRdBursts::8             4                       # Per bank write bursts (Count)
system.mem_ctrl.dram.perBankRdBursts::9             9                       # Per bank write bursts (Count)
system.mem_ctrl.dram.perBankRdBursts::10           27                       # Per bank write bursts (Count)
system.mem_ctrl.dram.perBankRdBursts::11           44                       # Per bank write bursts (Count)
system.mem_ctrl.dram.perBankRdBursts::12           10                       # Per bank write bursts (Count)
system.mem_ctrl.dram.perBankRdBursts::13            6                       # Per bank write bursts (Count)
system.mem_ctrl.dram.perBankRdBursts::14            0                       # Per bank write bursts (Count)
system.mem_ctrl.dram.perBankRdBursts::15            6                       # Per bank write bursts (Count)
system.mem_ctrl.dram.perBankWrBursts::0             0                       # Per bank write bursts (Count)
system.mem_ctrl.dram.perBankWrBursts::1             0                       # Per bank write bursts (Count)
system.mem_ctrl.dram.perBankWrBursts::2             0                       # Per bank write bursts (Count)
system.mem_ctrl.dram.perBankWrBursts::3             0                       # Per bank write bursts (Count)
system.mem_ctrl.dram.perBankWrBursts::4             0                       # Per bank write bursts (Count)
system.mem_ctrl.dram.perBankWrBursts::5             0                       # Per bank write bursts (Count)
system.mem_ctrl.dram.perBankWrBursts::6             0                       # Per bank write bursts (Count)
system.mem_ctrl.dram.perBankWrBursts::7             0                       # Per bank write bursts (Count)
system.mem_ctrl.dram.perBankWrBursts::8             0                       # Per bank write bursts (Count)
system.mem_ctrl.dram.perBankWrBursts::9             0                       # Per bank write bursts (Count)
system.mem_ctrl.dram.perBankWrBursts::10            0                       # Per bank write bursts (Count)
system.mem_ctrl.dram.perBankWrBursts::11            0                       # Per bank write bursts (Count)
system.mem_ctrl.dram.perBankWrBursts::12            0                       # Per bank write bursts (Count)
system.mem_ctrl.dram.perBankWrBursts::13            0                       # Per bank write bursts (Count)
system.mem_ctrl.dram.perBankWrBursts::14            0                       # Per bank write bursts (Count)
system.mem_ctrl.dram.perBankWrBursts::15            0                       # Per bank write bursts (Count)
system.mem_ctrl.dram.totQLat                  3455500                       # Total ticks spent queuing (Tick)
system.mem_ctrl.dram.totBusLat                2025000                       # Total ticks spent in databus transfers (Tick)
system.mem_ctrl.dram.totMemAccLat            11049250                       # Total ticks spent from burst creation until serviced by the DRAM (Tick)
system.mem_ctrl.dram.avgQLat                  8532.10                       # Average queueing delay per DRAM burst ((Tick/Count))
system.mem_ctrl.dram.avgBusLat                5000.00                       # Average bus latency per DRAM burst ((Tick/Count))
system.mem_ctrl.dram.avgMemAccLat            27282.10                       # Average memory access latency per DRAM burst ((Tick/Count))
system.mem_ctrl.dram.readRowHits                  341                       # Number of row buffer hits during reads (Count)
system.mem_ctrl.dram.writeRowHits                   0                       # Number of row buffer hits during writes (Count)
system.mem_ctrl.dram.readRowHitRate             84.20                       # Row buffer hit rate for reads (Ratio)
system.mem_ctrl.dram.writeRowHitRate              nan                       # Row buffer hit rate for writes (Ratio)
system.mem_ctrl.dram.bytesPerActivate::samples           61                       # Bytes accessed per row activation (Byte)
system.mem_ctrl.dram.bytesPerActivate::mean   416.524590                       # Bytes accessed per row activation (Byte)
system.mem_ctrl.dram.bytesPerActivate::gmean   283.244539                       # Bytes accessed per row activation (Byte)
system.mem_ctrl.dram.bytesPerActivate::stdev   339.787758                       # Bytes accessed per row activation (Byte)
system.mem_ctrl.dram.bytesPerActivate::0-127           10     16.39%     16.39% # Bytes accessed per row activation (Byte)
system.mem_ctrl.dram.bytesPerActivate::128-255           18     29.51%     45.90% # Bytes accessed per row activation (Byte)
system.mem_ctrl.dram.bytesPerActivate::256-383            7     11.48%     57.38% # Bytes accessed per row activation (Byte)
system.mem_ctrl.dram.bytesPerActivate::384-511            6      9.84%     67.21% # Bytes accessed per row activation (Byte)
system.mem_ctrl.dram.bytesPerActivate::512-639            3      4.92%     72.13% # Bytes accessed per row activation (Byte)
system.mem_ctrl.dram.bytesPerActivate::640-767            3      4.92%     77.05% # Bytes accessed per row activation (Byte)
system.mem_ctrl.dram.bytesPerActivate::768-895            2      3.28%     80.33% # Bytes accessed per row activation (Byte)
system.mem_ctrl.dram.bytesPerActivate::896-1023            4      6.56%     86.89% # Bytes accessed per row activation (Byte)
system.mem_ctrl.dram.bytesPerActivate::1024-1151            8     13.11%    100.00% # Bytes accessed per row activation (Byte)
system.mem_ctrl.dram.bytesPerActivate::total           61                       # Bytes accessed per row activation (Byte)
system.mem_ctrl.dram.bytesRead                  25920                       # Total bytes read (Byte)
system.mem_ctrl.dram.bytesWritten                   0                       # Total bytes written (Byte)
system.mem_ctrl.dram.avgRdBW              1543.913989                       # Average DRAM read bandwidth in MiBytes/s ((Byte/Second))
system.mem_ctrl.dram.avgWrBW                        0                       # Average DRAM write bandwidth in MiBytes/s ((Byte/Second))
system.mem_ctrl.dram.peakBW                  12800.00                       # Theoretical peak bandwidth in MiByte/s ((Byte/Second))
system.mem_ctrl.dram.busUtil                    12.06                       # Data bus utilization in percentage (Ratio)
system.mem_ctrl.dram.busUtilRead                12.06                       # Data bus utilization in percentage for reads (Ratio)
system.mem_ctrl.dram.busUtilWrite                0.00                       # Data bus utilization in percentage for writes (Ratio)
system.mem_ctrl.dram.pageHitRate                84.20                       # Row buffer hit rate, read and write combined (Ratio)
system.mem_ctrl.dram.power_state.pwrStateResidencyTicks::UNDEFINED     16788500                       # Cumulative time (in ticks) in various power states (Tick)
system.mem_ctrl.dram.rank0.actEnergy           314160                       # Energy for activate commands per rank (pJ) (Joule)
system.mem_ctrl.dram.rank0.preEnergy           159390                       # Energy for precharge commands per rank (pJ) (Joule)
system.mem_ctrl.dram.rank0.readEnergy         2134860                       # Energy for read commands per rank (pJ) (Joule)
system.mem_ctrl.dram.rank0.writeEnergy              0                       # Energy for write commands per rank (pJ) (Joule)
system.mem_ctrl.dram.rank0.refreshEnergy 1229280.000000                       # Energy for refresh commands per rank (pJ) (Joule)
system.mem_ctrl.dram.rank0.actBackEnergy      7577010                       # Energy for active background per rank (pJ) (Joule)
system.mem_ctrl.dram.rank0.preBackEnergy        66240                       # Energy for precharge background per rank (pJ) (Joule)
system.mem_ctrl.dram.rank0.actPowerDownEnergy            0                       # Energy for active power-down per rank (pJ) (Joule)
system.mem_ctrl.dram.rank0.prePowerDownEnergy            0                       # Energy for precharge power-down per rank (pJ) (Joule)
system.mem_ctrl.dram.rank0.selfRefreshEnergy            0                       # Energy for self refresh per rank (pJ) (Joule)
system.mem_ctrl.dram.rank0.totalEnergy       11480940                       # Total energy per rank (pJ) (Joule)
system.mem_ctrl.dram.rank0.averagePower    683.857402                       # Core power per rank (mW) (Watt)
system.mem_ctrl.dram.rank0.totalIdleTime            0                       # Total Idle time Per DRAM Rank (Tick)
system.mem_ctrl.dram.rank0.pwrStateTime::IDLE       102750                       # Time in different power states (Tick)
system.mem_ctrl.dram.rank0.pwrStateTime::REF       520000                       # Time in different power states (Tick)
system.mem_ctrl.dram.rank0.pwrStateTime::SREF            0                       # Time in different power states (Tick)
system.mem_ctrl.dram.rank0.pwrStateTime::PRE_PDN            0                       # Time in different power states (Tick)
system.mem_ctrl.dram.rank0.pwrStateTime::ACT     16165750                       # Time in different power states (Tick)
system.mem_ctrl.dram.rank0.pwrStateTime::ACT_PDN            0                       # Time in different power states (Tick)
system.mem_ctrl.dram.rank1.actEnergy           142800                       # Energy for activate commands per rank (pJ) (Joule)
system.mem_ctrl.dram.rank1.preEnergy            72105                       # Energy for precharge commands per rank (pJ) (Joule)
system.mem_ctrl.dram.rank1.readEnergy          756840                       # Energy for read commands per rank (pJ) (Joule)
system.mem_ctrl.dram.rank1.writeEnergy              0                       # Energy for write commands per rank (pJ) (Joule)
system.mem_ctrl.dram.rank1.refreshEnergy 1229280.000000                       # Energy for refresh commands per rank (pJ) (Joule)
system.mem_ctrl.dram.rank1.actBackEnergy      7533690                       # Energy for active background per rank (pJ) (Joule)
system.mem_ctrl.dram.rank1.preBackEnergy       102720                       # Energy for precharge background per rank (pJ) (Joule)
system.mem_ctrl.dram.rank1.actPowerDownEnergy            0                       # Energy for active power-down per rank (pJ) (Joule)
system.mem_ctrl.dram.rank1.prePowerDownEnergy            0                       # Energy for precharge power-down per rank (pJ) (Joule)
system.mem_ctrl.dram.rank1.selfRefreshEnergy            0                       # Energy for self refresh per rank (pJ) (Joule)
system.mem_ctrl.dram.rank1.totalEnergy        9837435                       # Total energy per rank (pJ) (Joule)
system.mem_ctrl.dram.rank1.averagePower    585.962713                       # Core power per rank (mW) (Watt)
system.mem_ctrl.dram.rank1.totalIdleTime            0                       # Total Idle time Per DRAM Rank (Tick)
system.mem_ctrl.dram.rank1.pwrStateTime::IDLE       211500                       # Time in different power states (Tick)
system.mem_ctrl.dram.rank1.pwrStateTime::REF       520000                       # Time in different power states (Tick)
system.mem_ctrl.dram.rank1.pwrStateTime::SREF            0                       # Time in different power states (Tick)
system.mem_ctrl.dram.rank1.pwrStateTime::PRE_PDN            0                       # Time in different power states (Tick)
system.mem_ctrl.dram.rank1.pwrStateTime::ACT     16057000                       # Time in different power states (Tick)
system.mem_ctrl.dram.rank1.pwrStateTime::ACT_PDN            0                       # Time in different power states (Tick)
system.mem_ctrl.power_state.pwrStateResidencyTicks::UNDEFINED     16788500                       # Cumulative time (in ticks) in various power states (Tick)
system.membus.transDist::ReadResp                 364                       # Transaction distribution (Count)
system.membus.transDist::ReadExReq                 41                       # Transaction distribution (Count)
system.membus.transDist::ReadExResp                41                       # Transaction distribution (Count)
system.membus.transDist::ReadSharedReq            364                       # Transaction distribution (Count)
system.membus.pktCount_system.l2cache.mem_side_port::system.mem_ctrl.port          810                       # Packet count per connected requestor and responder (Count)
system.membus.pktCount::total                     810                       # Packet count per connected requestor and responder (Count)
system.membus.pktSize_system.l2cache.mem_side_port::system.mem_ctrl.port        25920                       # Cumulative packet size per connected requestor and responder (Byte)
system.membus.pktSize::total                    25920                       # Cumulative packet size per connected requestor and responder (Byte)
system.membus.snoops                                0                       # Total snoops (Count)
system.membus.snoopTraffic                          0                       # Total snoop traffic (Byte)
system.membus.snoopFanout::samples                405                       # Request fanout histogram (Count)
system.membus.snoopFanout::mean                     0                       # Request fanout histogram (Count)
system.membus.snoopFanout::stdev                    0                       # Request fanout histogram (Count)
system.membus.snoopFanout::underflows               0      0.00%      0.00% # Request fanout histogram (Count)
system.membus.snoopFanout::0                      405    100.00%    100.00% # Request fanout histogram (Count)
system.membus.snoopFanout::1                        0      0.00%    100.00% # Request fanout histogram (Count)
system.membus.snoopFanout::overflows                0      0.00%    100.00% # Request fanout histogram (Count)
system.membus.snoopFanout::min_value                0                       # Request fanout histogram (Count)
system.membus.snoopFanout::max_value                0                       # Request fanout histogram (Count)
system.membus.snoopFanout::total                  405                       # Request fanout histogram (Count)
system.membus.power_state.pwrStateResidencyTicks::UNDEFINED     16788500                       # Cumulative time (in ticks) in various power states (Tick)
system.membus.reqLayer0.occupancy              202500                       # Layer occupancy (ticks) (Tick)
system.membus.reqLayer0.utilization               0.0                       # Layer utilization (Ratio)
system.membus.respLayer1.occupancy            1101250                       # Layer occupancy (ticks) (Tick)
system.membus.respLayer1.utilization              0.1                       # Layer utilization (Ratio)
system.membus.snoop_filter.totRequests            405                       # Total number of requests made to the snoop filter. (Count)
system.membus.snoop_filter.hitSingleRequests            0                       # Number of requests hitting in the snoop filter with a single holder of the requested data. (Count)
system.membus.snoop_filter.hitMultiRequests            0                       # Number of requests hitting in the snoop filter with multiple (>1) holders of the requested data. (Count)
system.membus.snoop_filter.totSnoops                0                       # Total number of snoops made to the snoop filter. (Count)
system.membus.snoop_filter.hitSingleSnoops            0                       # Number of snoops hitting in the snoop filter with a single holder of the requested data. (Count)
system.membus.snoop_filter.hitMultiSnoops            0                       # Number of snoops hitting in the snoop filter with multiple (>1) holders of the requested data. (Count)
system.workload.inst.arm                            0                       # number of arm instructions executed (Count)
system.workload.inst.quiesce                        0                       # number of quiesce instructions executed (Count)

---------- End Simulation Statistics   ----------
